Circuit: * C:\Users\ohvic\Documents\ITBA\TCTP2\Ex2\NE5534.asc

Direct Newton iteration for .op point succeeded.

Date: Sat Aug 24 00:11:46 2019
Total elapsed time: 0.073 seconds.

tnom = 27
temp = 27
method = modified trap
totiter = 2408
traniter = 2398
tranpoints = 1114
accept = 1080
rejected = 34
matrix size = 32
fillins = 45
solver = Normal
Matrix Compiler1: 3.93 KB object code size  0.7/0.4/[0.2]
Matrix Compiler2: 3.32 KB object code size  0.3/0.3/[0.2]

