Circuit: * G:\Mi unidad\Facultad\ITBA\Teoria de Circuito\Trabajos Practicos\TP02\parte 6\Simulacion\Draft1.asc


Date: Tue Sep 03 23:41:23 2019
Total elapsed time: 0.201 seconds.

tnom = 27
temp = 27
method = trap
totiter = 202
traniter = 0
tranpoints = 0
accept = 0
rejected = 0
matrix size = 62
fillins = 104
solver = Normal
Matrix Compiler1: 8.63 KB object code size  3.4/2.6/[1.0]
Matrix Compiler2: 6.92 KB object code size  1.3/2.3/[0.9]

