Circuit: * C:\Users\lisan\Documents\Repositorios\TC\TP02\parte6\Simulacion\Draft1.asc

Early termination of direct N-R iteration.
Direct Newton iteration failed to find .op point.  (Use ".option noopiter" to skip.)
Starting Gmin stepping
Gmin = 10
vernier = 0.5
vernier = 0.25
vernier = 0.125
Gmin = 5.5165
vernier = 0.0625
vernier = 0.03125
vernier = 0.015625
vernier = 0.0078125
Gmin = 5.49501
vernier = 0.00390625
vernier = 0.00195313
vernier = 0.000976563
vernier = 0.000488281
Gmin = 5.50104
Gmin = 0
Gmin stepping succeeded in finding the operating point.

Heightened Def Con from 1.59412e-007 to 1.59412e-007
Heightened Def Con from 1.59412e-007 to 1.59412e-007
Heightened Def Con from 1.59412e-007 to 1.59412e-007
Heightened Def Con from 1.59412e-007 ++to 1.59537e-007
Heightened Def Con from 1.59537e-007 to 1.60662e-007
Heightened Def Con from 1.60913e-007 to 1.61163e-007
Heightened Def Con from 1.61929e-007 to 1.61929e-007
Heightened Def Con from 1.61929e-007 to 1.61929e-007
Heightened Def Con from 1.61929e-007 to 1.62179e-007
Heightened Def Con from 1.6218e-007 to 1.6218e-007
Heightened Def Con from 1.6218e-007 to 1.62307e-007
Heightened Def Con from 1.62335e-007 to 1.62462e-007
Heightened Def Con from 1.62462e-007 to 1.62462e-007
Heightened Def Con from 1.62462e-007 to 1.62462e-007
Heightened Def Con from 1.62462e-007 to 1.64462e-007
Heightened Def Con from 1.73359e-007 to 1.73484e-007
Heightened Def Con from 1.73578e-007 to 1.73578e-007
Heightened Def Con from 1.73578e-007 to 1.73828e-007
Heightened Def Con from 1.74196e-007 to 1.74196e-007
Heightened Def Con from 1.74196e-007 to 1.76196e-007
Heightened Def Con from 1.78196e-007 to 1.78196e-007
Heightened Def Con from 1.78196e-007 to 1.78446e-007
Heightened Def Con from 1.89696e-007 to 1.89696e-007
Heightened Def Con from 1.89696e-007 to 1.90821e-007
Heightened Def Con from 1.90821e-007 to 1.91071e-007
Heightened Def Con from 1.91071e-007 to 1.91321e-007
Heightened Def Con from 1.92073e-007 to 1.94073e-007
Heightened Def Con from 4.37234e-007 to 4.37234e-007
Heightened Def Con from 4.37234e-007 to 4.37374e-007
Heightened Def Con from 4.37414e-007 to 4.37414e-007
Heightened Def Con from 4.37414e-007 to 4.39414e-007
Heightened Def Con from 4.41415e-007 to 4.41415e-007
Heightened Def Con from 4.41415e-007 to 4.41415e-007
Heightened Def Con from 4.41415e-007 +to 4.42446e-007
Heightened Def Con from 4.42446e-007 to 4.42571e-007
Heightened Def Con from 4.42571e-007 +to 4.42696e-007
Heightened Def Con from 4.42696e-007 to 4.42696e-007
Heightened Def Con from 4.42697e-007 to 4.42698e-007
Heightened Def Con from 4.42698e-007 to 4.42699e-007
Heightened Def Con from 4.42699e-007 +to 4.42824e-007
Heightened Def Con from 4.42824e-007 +to 4.42964e-007
Heightened Def Con from 4.42964e-007 to 4.42965e-007
Heightened Def Con from 4.42965e-007 +to 4.4298e-007
Heightened Def Con from 4.43075e-007 to 4.43078e-007
Heightened Def Con from 4.43078e-007 to 4.4308e-007
Heightened Def Con from 4.4308e-007 +to 4.4322e-007
Heightened Def Con from 4.43437e-007 to 4.45437e-007
Heightened Def Con from 4.51557e-007 to 4.51698e-007
Heightened Def Con from 4.51729e-007 to 4.51729e-007
Heightened Def Con from 4.51729e-007 to 4.5187e-007
Heightened Def Con from 4.5187e-007 to 4.5187e-007
Heightened Def Con from 4.5187e-007 to 4.51872e-007
Heightened Def Con from 4.51872e-007 to 4.51872e-007
Heightened Def Con from 4.51872e-007 +to 4.51997e-007
Heightened Def Con from 4.52858e-007 to 4.52858e-007
Heightened Def Con from 4.52858e-007 to 4.5286e-007
Heightened Def Con from 4.5286e-007 to 4.5286e-007
Heightened Def Con from 4.5286e-007 to 4.53001e-007
Heightened Def Con from 4.53001e-007 to 4.53003e-007
Heightened Def Con from 4.53003e-007 to 4.53005e-007
Heightened Def Con from 4.53005e-007 to 4.53021e-007
Heightened Def Con from 4.53021e-007 to 4.53038e-007
Heightened Def Con from 4.53039e-007 to 4.53056e-007
Heightened Def Con from 4.53056e-007 to 4.53056e-007
Heightened Def Con from 4.53056e-007 to 4.53057e-007
Heightened Def Con from 4.53057e-007 to 4.53072e-007
Heightened Def Con from 4.53072e-007 to 4.53072e-007
Heightened Def Con from 4.53072e-007 to 4.53075e-007
Heightened Def Con from 4.53075e-007 to 4.53075e-007
Heightened Def Con from 4.53075e-007 to 4.53077e-007
Heightened Def Con from 4.53077e-007 +to 4.53217e-007
Heightened Def Con from 4.53245e-007 to 4.5337e-007
Heightened Def Con from 4.5337e-007 to 4.53387e-007
Heightened Def Con from 4.53387e-007 to 4.53387e-007
Heightened Def Con from 4.53387e-007 to 4.53387e-007
Heightened Def Con from 4.53387e-007 to 4.53389e-007
Heightened Def Con from 4.53389e-007 to 4.53389e-007
Heightened Def Con from 4.53389e-007 to 4.53389e-007
Heightened Def Con from 4.53389e-007 to 4.53515e-007
Heightened Def Con from 4.53515e-007 to 4.55515e-007
Heightened Def Con from 4.55554e-007 to 4.55554e-007
Heightened Def Con from 4.55554e-007 to 4.55695e-007
Heightened Def Con from 4.55695e-007 to 4.5582e-007
Heightened Def Con from 4.5582e-007 to 4.5582e-007
Heightened Def Con from 4.5582e-007 +to 4.5582e-007
Heightened Def Con from 4.5582e-007 to 4.5582e-007
Heightened Def Con from 4.5582e-007 +to 4.55961e-007
Heightened Def Con from 4.55961e-007 to 4.55978e-007
Heightened Def Con from 4.55979e-007 +to 4.55981e-007
Heightened Def Con from 4.55981e-007 to 4.55983e-007
Heightened Def Con from 4.55987e-007 to 4.55987e-007
Heightened Def Con from 4.55987e-007 to 4.56003e-007
Heightened Def Con from 4.56003e-007 to 4.56005e-007
Heightened Def Con from 4.56005e-007 +to 4.56005e-007
Heightened Def Con from 4.56005e-007 to 4.56007e-007
Heightened Def Con from 4.56007e-007 to 4.5601e-007
Heightened Def Con from 4.5601e-007 to 4.5601e-007
Heightened Def Con from 4.5601e-007 to 4.56012e-007
Heightened Def Con from 4.56012e-007 +to 4.56152e-007
Heightened Def Con from 4.56152e-007 to 4.56168e-007
Heightened Def Con from 4.56168e-007 to 4.58168e-007
Heightened Def Con from 4.58168e-007 to 4.58186e-007
Heightened Def Con from 4.58186e-007 to 4.58186e-007
Heightened Def Con from 4.58186e-007 to 4.58188e-007
Heightened Def Con from 4.58188e-007 to 4.59204e-007
Heightened Def Con from 4.59204e-007 to 4.59206e-007
Heightened Def Con from 4.59209e-007 to 4.59227e-007
Heightened Def Con from 4.59227e-007 to 4.59227e-007
Heightened Def Con from 4.59227e-007 +to 4.59229e-007
Heightened Def Con from 4.59229e-007 to 4.59229e-007
Heightened Def Con from 4.59229e-007 to 4.59232e-007
Heightened Def Con from 4.59232e-007 to 4.59232e-007
Heightened Def Con from 4.59232e-007 to 4.61232e-007
Heightened Def Con from 4.61232e-007 to 4.61234e-007
Heightened Def Con from 4.61237e-007 to 4.61241e-007
Heightened Def Con from 4.61242e-007 to 4.61242e-007
Heightened Def Con from 4.61242e-007 to 4.61242e-007
Heightened Def Con from 4.61242e-007 to 4.61244e-007
Heightened Def Con from 4.61244e-007 to 4.61246e-007
Heightened Def Con from 4.61246e-007 to 4.61246e-007
Heightened Def Con from 4.61246e-007 to 4.6125e-007
Heightened Def Con from 4.6125e-007 to 4.6125e-007
Heightened Def Con from 4.6125e-007 to 4.61252e-007
Heightened Def Con from 4.61252e-007 to 4.61252e-007
Heightened Def Con from 4.61252e-007 to 4.61393e-007
Heightened Def Con from 4.61393e-007 to 4.61408e-007
Heightened Def Con from 4.61408e-007 to 4.61408e-007
Heightened Def Con from 4.61408e-007 to 4.61408e-007
Heightened Def Con from 4.61408e-007 to 4.6141e-007
Heightened Def Con from 4.6141e-007 to 4.61413e-007
Heightened Def Con from 4.61413e-007 to 4.6143e-007
Heightened Def Con from 4.6143e-007 to 4.61432e-007
Heightened Def Con from 4.61432e-007 to 4.61573e-007
Heightened Def Con from 4.61573e-007 to 4.61575e-007
Heightened Def Con from 4.61575e-007 to 4.62591e-007
Heightened Def Con from 4.62687e-007 to 4.62689e-007
Heightened Def Con from 4.62689e-007 to 4.62689e-007
Heightened Def Con from 4.62689e-007 +to 4.62691e-007
Heightened Def Con from 4.62691e-007 to 4.62693e-007
Heightened Def Con from 4.62693e-007 to 4.62695e-007
Heightened Def Con from 4.62702e-007 to 4.62702e-007
Heightened Def Con from 4.62702e-007 to 4.62704e-007
Heightened Def Con from 4.62704e-007 to 4.62704e-007
Heightened Def Con from 4.62704e-007 to 4.62704e-007
Heightened Def Con from 4.62704e-007 to 4.62706e-007
Heightened Def Con from 4.62706e-007 +to 4.62706e-007
Heightened Def Con from 4.62706e-007 to 4.62722e-007
Heightened Def Con from 4.62722e-007 to 4.6274e-007
Heightened Def Con from 4.6274e-007 to 4.62742e-007
Heightened Def Con from 4.62742e-007 to 4.62742e-007
Heightened Def Con from 4.62742e-007 to 4.62757e-007
Heightened Def Con from 4.62757e-007 to 4.62773e-007
Heightened Def Con from 4.62773e-007 to 4.62791e-007
Heightened Def Con from 4.62791e-007 to 4.62795e-007
Heightened Def Con from 4.62795e-007 to 4.62797e-007
Heightened Def Con from 4.62798e-007 +to 4.62938e-007
Heightened Def Con from 4.62968e-007 to 4.64968e-007
Heightened Def Con from 4.67468e-007 to 4.67471e-007
Heightened Def Con from 4.67471e-007 to 4.67471e-007
Heightened Def Con from 4.67471e-007 +to 4.67596e-007
Heightened Def Con from 4.67846e-007 to 4.67848e-007
Heightened Def Con from 4.67848e-007 +to 4.67848e-007
Heightened Def Con from 4.67848e-007 +to 4.67848e-007
Heightened Def Con from 4.67848e-007 +to 4.67849e-007
Heightened Def Con from 4.67849e-007 to 4.67849e-007
Heightened Def Con from 4.67849e-007 to 4.67851e-007
Heightened Def Con from 4.67851e-007 to 4.67853e-007
Heightened Def Con from 4.67853e-007 to 4.67853e-007
Heightened Def Con from 4.67853e-007 +to 4.67868e-007
Heightened Def Con from 4.67899e-007 to 4.67901e-007
Heightened Def Con from 4.67901e-007 to 4.67919e-007
Heightened Def Con from 4.67919e-007 to 4.67919e-007
Heightened Def Con from 4.67919e-007 to 4.67919e-007
Heightened Def Con from 4.67919e-007 to 4.67937e-007
Heightened Def Con from 4.67937e-007 to 4.67937e-007
Heightened Def Con from 4.67937e-007 to 4.67952e-007
Heightened Def Con from 4.67952e-007 to 4.67952e-007
Heightened Def Con from 4.67952e-007 to 4.67968e-007
Heightened Def Con from 4.67968e-007 to 4.6797e-007
Heightened Def Con from 4.6797e-007 to 4.67972e-007
Heightened Def Con from 4.67972e-007 to 4.6799e-007
Heightened Def Con from 4.6799e-007 to 4.67991e-007
Heightened Def Con from 4.67992e-007 to 4.67994e-007
Heightened Def Con from 4.67994e-007 to 4.67996e-007
Heightened Def Con from 4.67996e-007 to 4.67998e-007
Heightened Def Con from 4.67998e-007 to 4.68e-007
Heightened Def Con from 4.68e-007 to 4.68e-007
Heightened Def Con from 4.68e-007 to 4.68002e-007
Heightened Def Con from 4.68002e-007 to 4.68004e-007
Heightened Def Con from 4.68004e-007 to 4.68022e-007
Heightened Def Con from 4.68022e-007 to 4.68024e-007
Heightened Def Con from 4.68024e-007 to 4.68024e-007
Heightened Def Con from 4.68024e-007 to 4.68026e-007
Heightened Def Con from 4.68026e-007 to 4.68028e-007
Heightened Def Con from 4.68028e-007 to 4.68028e-007
Heightened Def Con from 4.68028e-007 to 4.68028e-007
Heightened Def Con from 4.68028e-007 to 4.68028e-007
Heightened Def Con from 4.68028e-007 to 4.68028e-007
Heightened Def Con from 4.68028e-007 to 4.6803e-007
Heightened Def Con from 4.6803e-007 to 4.68032e-007
Heightened Def Con from 4.68032e-007 to 4.68032e-007
Heightened Def Con from 4.68032e-007 to 4.68032e-007
Heightened Def Con from 4.68032e-007 to 4.68034e-007
Heightened Def Con from 4.68034e-007 +to 4.68034e-007
Heightened Def Con from 4.68034e-007 to 4.68034e-007
Heightened Def Con from 4.68034e-007 to 4.68034e-007
Heightened Def Con from 4.68034e-007 to 4.68034e-007
Heightened Def Con from 4.68034e-007 to 4.68036e-007
Heightened Def Con from 4.68036e-007 to 4.68036e-007
Heightened Def Con from 4.68036e-007 to 4.68038e-007
Heightened Def Con from 4.68038e-007 to 4.6804e-007
Heightened Def Con from 4.6804e-007 to 4.6804e-007
Heightened Def Con from 4.6804e-007 +to 4.6804e-007
Heightened Def Con from 4.6804e-007 +to 4.6804e-007
Heightened Def Con from 4.6804e-007 +to 4.6804e-007
Heightened Def Con from 4.6804e-007 +to 4.68041e-007
Heightened Def Con from 4.68041e-007 to 4.68041e-007
Heightened Def Con from 4.68041e-007 to 4.68043e-007
Heightened Def Con from 4.68043e-007 to 4.68043e-007
Heightened Def Con from 4.68043e-007 to 4.68043e-007
Heightened Def Con from 4.68043e-007 to 4.68043e-007
Heightened Def Con from 4.68043e-007 to 4.68043e-007
Heightened Def Con from 4.68043e-007 to 4.68045e-007
Heightened Def Con from 4.68045e-007 to 4.68047e-007
Heightened Def Con from 4.68047e-007 to 4.68047e-007
Heightened Def Con from 4.68047e-007 to 4.68047e-007
Heightened Def Con from 4.68047e-007 to 4.68047e-007
Heightened Def Con from 4.68047e-007 to 4.68047e-007
Heightened Def Con from 4.68047e-007 +to 4.68047e-007
Heightened Def Con from 4.68047e-007 to 4.68049e-007
Heightened Def Con from 4.68049e-007 to 4.68049e-007
Heightened Def Con from 4.68049e-007 to 4.68051e-007
Heightened Def Con from 4.68051e-007 to 4.68051e-007
Heightened Def Con from 4.68051e-007 to 4.68051e-007
Heightened Def Con from 4.68051e-007 to 4.68051e-007
Heightened Def Con from 4.68051e-007 to 4.68051e-007
Heightened Def Con from 4.68051e-007 to 4.68053e-007
Heightened Def Con from 4.68053e-007 to 4.68055e-007
Heightened Def Con from 4.68055e-007 +to 4.6818e-007
Heightened Def Con from 4.6893e-007 to 4.6907e-007
Heightened Def Con from 4.6907e-007 to 4.69072e-007
Heightened Def Con from 4.69072e-007 to 4.69072e-007
Heightened Def Con from 4.69072e-007 to 4.69074e-007
Heightened Def Con from 4.69074e-007 to 4.69076e-007
Heightened Def Con from 4.69076e-007 to 4.69076e-007
Heightened Def Con from 4.69076e-007 to 4.69076e-007
Heightened Def Con from 4.69076e-007 to 4.69078e-007
Heightened Def Con from 4.69078e-007 to 4.69078e-007
Heightened Def Con from 4.69078e-007 to 4.69078e-007
Heightened Def Con from 4.69078e-007 to 4.69078e-007
Heightened Def Con from 4.69078e-007 to 4.69078e-007
Heightened Def Con from 4.69078e-007 to 4.69078e-007
Heightened Def Con from 4.69078e-007 to 4.69078e-007
Heightened Def Con from 4.69078e-007 +to 4.69081e-007
Heightened Def Con from 4.69081e-007 to 4.69081e-007
Heightened Def Con from 4.69081e-007 to 4.69098e-007
Heightened Def Con from 4.69098e-007 to 4.691e-007
Heightened Def Con from 4.691e-007 to 4.69102e-007
Heightened Def Con from 4.69102e-007 to 4.6912e-007
Heightened Def Con from 4.6912e-007 to 4.6912e-007
Heightened Def Con from 4.6912e-007 to 4.69137e-007
Heightened Def Con from 4.69137e-007 to 4.69139e-007
Heightened Def Con from 4.69139e-007 to 4.69141e-007
Heightened Def Con from 4.69141e-007 to 4.69141e-007
Heightened Def Con from 4.69141e-007 to 4.69141e-007
Heightened Def Con from 4.69141e-007 ++to 4.69159e-007
Heightened Def Con from 4.69191e-007 +to 4.69316e-007
Heightened Def Con from 4.70066e-007 to 4.70066e-007
Heightened Def Con from 4.70066e-007 to 4.70066e-007
Heightened Def Con from 4.70066e-007 +to 4.70082e-007
Heightened Def Con from 4.70123e-007 +to 4.70124e-007
Heightened Def Con from 4.70124e-007 to 4.71139e-007
Heightened Def Con from 4.71139e-007 +to 4.71139e-007
Heightened Def Con from 4.71139e-007 to 4.71155e-007
Heightened Def Con from 4.71155e-007 to 4.71157e-007
Heightened Def Con from 4.71157e-007 to 4.71298e-007
Heightened Def Con from 4.71298e-007 to 4.71298e-007
Heightened Def Con from 4.71298e-007 to 4.71313e-007
Heightened Def Con from 4.71313e-007 +to 4.71438e-007
Heightened Def Con from 4.71438e-007 to 4.7144e-007
Heightened Def Con from 4.7144e-007 to 4.71442e-007
Heightened Def Con from 4.71442e-007 to 4.71442e-007
Heightened Def Con from 4.71442e-007 to 4.71442e-007
Heightened Def Con from 4.71442e-007 to 4.71444e-007
Heightened Def Con from 4.71444e-007 to 4.71444e-007
Heightened Def Con from 4.71444e-007 to 4.71444e-007
Heightened Def Con from 4.71445e-007 to 4.71445e-007
Heightened Def Con from 4.71445e-007 to 4.71447e-007
Heightened Def Con from 4.71447e-007 +to 4.71447e-007
Heightened Def Con from 4.71447e-007 to 4.71447e-007
Heightened Def Con from 4.71447e-007 to 4.71449e-007
Heightened Def Con from 4.71449e-007 +to 4.71449e-007
Heightened Def Con from 4.71449e-007 +to 4.71574e-007
Heightened Def Con from 4.71574e-007 to 4.71574e-007
Heightened Def Con from 4.71574e-007 to 4.71714e-007
Heightened Def Con from 4.71746e-007 to 4.71746e-007
Heightened Def Con from 4.71746e-007 to 4.71746e-007
Heightened Def Con from 4.71746e-007 to 4.71748e-007
Heightened Def Con from 4.71748e-007 to 4.71748e-007
Heightened Def Con from 4.71748e-007 to 4.71748e-007
Heightened Def Con from 4.71748e-007 to 4.71748e-007
Heightened Def Con from 4.71748e-007 to 4.7175e-007
Heightened Def Con from 4.7175e-007 to 4.71891e-007
Heightened Def Con from 4.71891e-007 +to 4.72031e-007
Heightened Def Con from 4.72066e-007 to 4.72066e-007
Heightened Def Con from 4.72066e-007 +to 4.72066e-007
Heightened Def Con from 4.72066e-007 +to 4.72191e-007
Heightened Def Con from 4.72191e-007 +to 4.72191e-007
Heightened Def Con from 4.72191e-007 to 4.72191e-007
Heightened Def Con from 4.72191e-007 to 4.72316e-007
Heightened Def Con from 4.72316e-007 to 4.72457e-007
Heightened Def Con from 4.72457e-007 +to 4.72457e-007
Heightened Def Con from 4.72457e-007 to 4.72457e-007
Heightened Def Con from 4.72457e-007 to 4.72459e-007
Heightened Def Con from 4.72459e-007 to 4.72461e-007
Heightened Def Con from 4.72461e-007 to 4.72461e-007
Heightened Def Con from 4.72461e-007 to 4.72463e-007
Heightened Def Con from 4.72463e-007 to 4.72466e-007
Heightened Def Con from 4.72466e-007 to 4.72468e-007
Heightened Def Con from 4.72468e-007 +to 4.72609e-007
Heightened Def Con from 4.72691e-007 +to 4.72692e-007
Heightened Def Con from 4.72692e-007 +to 4.72692e-007
Heightened Def Con from 4.72692e-007 to 4.72694e-007
Heightened Def Con from 4.72694e-007 +to 4.72819e-007
Heightened Def Con from 4.72819e-007 to 4.72819e-007
Heightened Def Con from 4.72819e-007 to 4.72835e-007
Heightened Def Con from 4.72835e-007 +to 4.72851e-007
Heightened Def Con from 4.72882e-007 to 4.72882e-007
Heightened Def Con from 4.72882e-007 to 4.73023e-007
Heightened Def Con from 4.73023e-007 to 4.73023e-007
Heightened Def Con from 4.73023e-007 to 4.7304e-007
Heightened Def Con from 4.7304e-007 to 4.73056e-007
Heightened Def Con from 4.73056e-007 to 4.73056e-007
Heightened Def Con from 4.73056e-007 +to 4.73056e-007
Heightened Def Con from 4.73056e-007 to 4.73056e-007
Heightened Def Con from 4.73056e-007 to 4.73072e-007
Heightened Def Con from 4.73072e-007 to 4.73072e-007
Heightened Def Con from 4.73072e-007 to 4.73072e-007
Heightened Def Con from 4.73072e-007 to 4.74072e-007
Heightened Def Con from 4.74072e-007 to 4.74212e-007
Heightened Def Con from 4.74212e-007 to 4.7423e-007
Heightened Def Con from 4.7423e-007 to 4.7423e-007
Heightened Def Con from 4.7423e-007 +to 4.74232e-007
Heightened Def Con from 4.74232e-007 to 4.74247e-007
Heightened Def Con from 4.74247e-007 to 4.74265e-007
Heightened Def Con from 4.74265e-007 to 4.74265e-007
Heightened Def Con from 4.74265e-007 +to 4.74267e-007
Heightened Def Con from 4.74267e-007 to 4.74283e-007
Heightened Def Con from 4.74283e-007 to 4.74283e-007
Heightened Def Con from 4.74283e-007 +to 4.74283e-007
Heightened Def Con from 4.74283e-007 +to 4.74408e-007
Heightened Def Con from 6.86777e-007 to 6.86779e-007
Heightened Def Con from 6.86779e-007 to 6.86906e-007
Heightened Def Con from 6.86906e-007 to 6.88906e-007
Heightened Def Con from 6.90907e-007 to 6.90924e-007
Heightened Def Con from 6.90924e-007 to 6.9094e-007
Heightened Def Con from 6.9094e-007 to 6.9119e-007
Heightened Def Con from 6.9119e-007 to 6.91221e-007
Heightened Def Con from 6.91222e-007 to 6.91223e-007
Heightened Def Con from 6.91223e-007 to 6.91238e-007
Heightened Def Con from 6.91239e-007 to 6.93239e-007
Heightened Def Con from 6.93271e-007 to 6.93396e-007
Heightened Def Con from 6.93396e-007 to 6.93396e-007
Heightened Def Con from 6.93396e-007 to 6.93646e-007
Heightened Def Con from 6.93897e-007 to 6.93897e-007
Heightened Def Con from 6.93897e-007 to 6.93897e-007
Heightened Def Con from 6.93897e-007 to 6.93928e-007
Heightened Def Con from 6.93928e-007 to 6.94928e-007
Heightened Def Con from 6.94928e-007 to 6.9493e-007
Heightened Def Con from 6.9493e-007 to 6.9493e-007
Heightened Def Con from 6.9493e-007 to 6.95946e-007
Heightened Def Con from 6.95977e-007 to 6.9598e-007
Heightened Def Con from 6.9598e-007 to 6.95984e-007
Heightened Def Con from 7.00918e-007 to 7.01058e-007
Heightened Def Con from 7.01089e-007 to 7.01107e-007
Heightened Def Con from 7.01107e-007 to 7.01248e-007
Heightened Def Con from 7.01306e-007 to 7.02322e-007
Heightened Def Con from 7.02353e-007 to 7.04353e-007
Heightened Def Con from 7.04611e-007 to 7.04615e-007
Heightened Def Con from 7.04619e-007 to 7.04637e-007
Heightened Def Con from 7.04651e-007 to 7.06651e-007
Heightened Def Con from 7.06901e-007 to 7.06903e-007
Heightened Def Con from 7.06903e-007 to 7.0703e-007
Heightened Def Con from 7.07057e-007 to 7.09057e-007
Heightened Def Con from 7.09086e-007 to 7.09211e-007
Heightened Def Con from 7.09211e-007 to 7.09243e-007
Heightened Def Con from 7.09247e-007 to 7.0925e-007
Heightened Def Con from 7.0925e-007 to 7.0925e-007
Heightened Def Con from 7.0925e-007 to 7.09252e-007
Heightened Def Con from 7.09252e-007 to 7.09252e-007
Heightened Def Con from 7.09252e-007 to 7.09252e-007
Heightened Def Con from 7.09253e-007 to 7.09253e-007
Heightened Def Con from 7.09253e-007 to 7.09253e-007
Heightened Def Con from 7.09253e-007 to 7.09253e-007
Heightened Def Con from 7.09253e-007 to 7.09253e-007
Heightened Def Con from 7.09253e-007 to 7.09253e-007
Heightened Def Con from 7.09253e-007 to 7.09253e-007
Heightened Def Con from 7.09253e-007 to 7.09253e-007
Heightened Def Con from 7.09253e-007 to 7.09253e-007
Heightened Def Con from 7.09253e-007 +to 7.09253e-007
Heightened Def Con from 7.09253e-007 to 7.09253e-007
Heightened Def Con from 7.09253e-007 to 7.09253e-007
Heightened Def Con from 7.09253e-007 to 7.09253e-007
Heightened Def Con from 7.09253e-007 to 7.09253e-007
Heightened Def Con from 7.09253e-007 +++to 7.09255e-007
Heightened Def Con from 7.09255e-007 ++++++++to 7.09271e-007
Heightened Def Con from 7.09271e-007 +to 7.09271e-007
Heightened Def Con from 7.09271e-007 +to 7.09396e-007
Heightened Def Con from 7.09396e-007 ++++++++to 7.10396e-007
Heightened Def Con from 7.10396e-007 to 7.10396e-007
Heightened Def Con from 7.10396e-007 +to 7.10397e-007
Heightened Def Con from 7.10397e-007 ++++++++++to 7.10522e-007
Heightened Def Con from 7.10522e-007 +++++++++to 7.10524e-007
Heightened Def Con from 7.10524e-007 +++to 7.11524e-007
Heightened Def Con from 7.11524e-007 +++++++++++++++to 7.11649e-007
Heightened Def Con from 7.1168e-007 ++++++++to 7.11805e-007
Heightened Def Con from 7.11805e-007 +++to 7.11805e-007
Heightened Def Con from 7.11805e-007 +++to 7.11805e-007
Heightened Def Con from 7.11805e-007 +to 7.11805e-007
Heightened Def Con from 7.11805e-007 +to 7.11805e-007
Heightened Def Con from 7.11805e-007 ++++to 7.11805e-007
Heightened Def Con from 7.11805e-007 +++++to 7.11805e-007
Heightened Def Con from 7.11805e-007 to 7.11807e-007
Heightened Def Con from 7.11807e-007 +++to 7.11807e-007
Heightened Def Con from 7.11807e-007 +to 7.11932e-007
Heightened Def Con from 7.11936e-007 ++to 7.11936e-007
Heightened Def Con from 7.11936e-007 ++++to 7.11936e-007
Heightened Def Con from 7.11936e-007 ++++++++++++++to 7.11951e-007
Heightened Def Con from 7.11951e-007 +to 7.12076e-007
Heightened Def Con from 7.12076e-007 +++to 7.12201e-007
Heightened Def Con from 7.12233e-007 +to 7.12248e-007
Heightened Def Con from 7.12248e-007 ++to 7.1225e-007
Heightened Def Con from 7.1225e-007 ++to 7.1325e-007
Heightened Def Con from 7.1325e-007 to 7.1425e-007
Heightened Def Con from 7.14345e-007 to 7.14472e-007
Heightened Def Con from 7.14473e-007 to 7.14489e-007
Heightened Def Con from 7.14489e-007 to 7.15489e-007
Heightened Def Con from 7.15489e-007 to 7.15739e-007
Heightened Def Con from 7.1574e-007 to 7.15757e-007
Heightened Def Con from 7.15758e-007 to 7.16759e-007
Heightened Def Con from 7.16759e-007 to 7.1679e-007
Heightened Def Con from 7.16822e-007 to 7.18822e-007
Heightened Def Con from 7.26728e-007 to 7.26978e-007
Heightened Def Con from 7.27101e-007 to 7.27103e-007
Heightened Def Con from 7.27104e-007 to 7.27135e-007
Heightened Def Con from 7.27147e-007 to 7.27147e-007
Heightened Def Con from 7.27147e-007 to 7.27163e-007
Heightened Def Con from 7.27163e-007 to 7.27179e-007
Heightened Def Con from 7.27179e-007 +to 7.28195e-007
Heightened Def Con from 7.28195e-007 to 7.2821e-007
Heightened Def Con from 7.2821e-007 +to 7.2821e-007
Heightened Def Con from 7.2821e-007 +to 7.28211e-007
Heightened Def Con from 7.28211e-007 +to 7.28211e-007
Heightened Def Con from 7.28211e-007 +to 7.29211e-007
Heightened Def Con from 7.29211e-007 to 7.29336e-007
Heightened Def Con from 7.29336e-007 to 7.29336e-007
Heightened Def Con from 7.29336e-007 +to 7.29337e-007
Heightened Def Con from 7.29337e-007 to 7.31337e-007
Heightened Def Con from 7.31337e-007 to 7.31368e-007
Heightened Def Con from 7.31399e-007 +to 7.31401e-007
Heightened Def Con from 7.31401e-007 to 7.31526e-007
Heightened Def Con from 7.31526e-007 to 7.31542e-007
Heightened Def Con from 7.31542e-007 to 7.31544e-007
Heightened Def Con from 7.31544e-007 to 7.31544e-007
Heightened Def Con from 7.31544e-007 to 7.31546e-007
Heightened Def Con from 7.31546e-007 to 7.31546e-007
Heightened Def Con from 7.31546e-007 +to 7.31562e-007
Heightened Def Con from 7.31562e-007 to 7.31687e-007
Heightened Def Con from 7.31687e-007 to 7.31702e-007
Heightened Def Con from 7.31702e-007 to 7.31702e-007
Heightened Def Con from 7.31702e-007 +to 7.32702e-007
Heightened Def Con from 7.32788e-007 to 7.32804e-007
Heightened Def Con from 7.329e-007 to 7.33915e-007
Heightened Def Con from 7.33948e-007 +to 7.34948e-007
Heightened Def Con from 7.34948e-007 to 7.35963e-007
Heightened Def Con from 7.35975e-007 +to 7.36975e-007
Heightened Def Con from 7.36979e-007 to 7.36981e-007
Heightened Def Con from 7.37008e-007 to 7.37008e-007
Heightened Def Con from 7.37008e-007 to 7.3701e-007
Heightened Def Con from 7.3701e-007 +to 7.37012e-007
Heightened Def Con from 7.37012e-007 to 7.37012e-007
Heightened Def Con from 7.37012e-007 to 7.37012e-007
Heightened Def Con from 7.37012e-007 to 7.37043e-007
Heightened Def Con from 7.37043e-007 to 7.37045e-007
Heightened Def Con from 7.37046e-007 to 7.37171e-007
Heightened Def Con from 7.37171e-007 to 7.37171e-007
Heightened Def Con from 7.37171e-007 to 7.37171e-007
Heightened Def Con from 7.37171e-007 to 7.39171e-007
Heightened Def Con from 7.39171e-007 to 7.39171e-007
Heightened Def Con from 7.39173e-007 ++to 7.40173e-007
Heightened Def Con from 7.40173e-007 to 7.40173e-007
Heightened Def Con from 7.40173e-007 to 7.40173e-007
Heightened Def Con from 7.40173e-007 to 7.40175e-007
Heightened Def Con from 7.40175e-007 to 7.403e-007
Heightened Def Con from 7.403e-007 to 7.40425e-007
Heightened Def Con from 7.40425e-007 to 7.42425e-007
Heightened Def Con from 7.44433e-007 to 7.4445e-007
Heightened Def Con from 7.4445e-007 to 7.44575e-007
Heightened Def Con from 7.44576e-007 to 7.44702e-007
Heightened Def Con from 7.44702e-007 +to 7.44734e-007
Heightened Def Con from 7.44735e-007 to 7.4475e-007
Heightened Def Con from 7.4475e-007 to 7.44782e-007
Heightened Def Con from 7.44782e-007 to 7.44784e-007
Heightened Def Con from 7.44784e-007 to 7.44801e-007
Heightened Def Con from 7.44801e-007 to 7.44801e-007
Heightened Def Con from 7.44801e-007 to 7.44926e-007
Heightened Def Con from 7.44926e-007 to 7.44944e-007
Heightened Def Con from 7.44948e-007 to 7.44948e-007
Heightened Def Con from 7.44948e-007 to 7.45088e-007
Heightened Def Con from 7.451e-007 to 7.45104e-007
Heightened Def Con from 7.45108e-007 to 7.45108e-007
Heightened Def Con from 7.45108e-007 +to 7.45108e-007
Heightened Def Con from 7.45108e-007 to 7.45123e-007
Heightened Def Con from 7.45123e-007 +to 7.45123e-007
Heightened Def Con from 7.45123e-007 ++to 7.45139e-007
Heightened Def Con from 7.45139e-007 +to 7.45141e-007
Heightened Def Con from 7.45141e-007 to 7.45141e-007
Heightened Def Con from 7.45141e-007 to 7.45141e-007
Heightened Def Con from 7.45141e-007 +++to 7.45141e-007
Heightened Def Con from 7.45141e-007 +++++to 7.45141e-007
Heightened Def Con from 7.45141e-007 ++to 7.45143e-007
Heightened Def Con from 7.45143e-007 to 7.45143e-007
Heightened Def Con from 7.45143e-007 +++++to 7.45143e-007
Heightened Def Con from 7.45143e-007 +to 7.45143e-007
Heightened Def Con from 7.45143e-007 to 7.45143e-007
Heightened Def Con from 7.45143e-007 +to 7.45143e-007
Heightened Def Con from 7.45143e-007 to 7.45159e-007
Heightened Def Con from 7.45159e-007 +to 7.45284e-007
Heightened Def Con from 7.45284e-007 to 7.45284e-007
Heightened Def Con from 7.45284e-007 +to 7.45286e-007
Heightened Def Con from 7.45286e-007 +to 7.45411e-007
Heightened Def Con from 7.45411e-007 to 7.45536e-007
Heightened Def Con from 7.45567e-007 to 7.45567e-007
Heightened Def Con from 7.45567e-007 to 7.45569e-007
Heightened Def Con from 7.45569e-007 to 7.45569e-007
Heightened Def Con from 7.45569e-007 to 7.4571e-007
Heightened Def Con from 7.45714e-007 to 7.45714e-007
Heightened Def Con from 7.45714e-007 to 7.45714e-007
Heightened Def Con from 7.45714e-007 to 7.45714e-007
Heightened Def Con from 7.45714e-007 ++to 7.45716e-007
Heightened Def Con from 7.4572e-007 to 7.45722e-007
Heightened Def Con from 7.45722e-007 +to 7.45722e-007
Heightened Def Con from 7.45722e-007 +to 7.45722e-007
Heightened Def Con from 7.45722e-007 +to 7.45722e-007
Heightened Def Con from 7.45722e-007 to 7.45722e-007
Heightened Def Con from 7.45722e-007 ++to 7.45722e-007
Heightened Def Con from 7.45722e-007 +to 7.45738e-007
Heightened Def Con from 7.45738e-007 to 7.45738e-007
Heightened Def Con from 7.45738e-007 ++to 7.45863e-007
Heightened Def Con from 7.45863e-007 +to 7.45878e-007
Heightened Def Con from 7.45878e-007 to 7.4588e-007
Heightened Def Con from 7.4588e-007 +++to 7.4588e-007
Heightened Def Con from 7.4588e-007 +to 7.45882e-007
Heightened Def Con from 7.45882e-007 to 7.45882e-007
Heightened Def Con from 7.45882e-007 to 7.46882e-007
Heightened Def Con from 7.46882e-007 ++to 7.46898e-007
Heightened Def Con from 7.46898e-007 +to 7.47023e-007
Heightened Def Con from 7.47023e-007 to 7.47023e-007
Heightened Def Con from 7.47023e-007 ++to 7.48025e-007
Heightened Def Con from 7.48025e-007 +++to 7.48025e-007
Heightened Def Con from 7.48025e-007 +++to 7.48025e-007
Heightened Def Con from 7.48025e-007 to 7.48025e-007
Heightened Def Con from 7.48025e-007 +++to 7.49025e-007
Heightened Def Con from 7.49025e-007 +to 7.50025e-007
Heightened Def Con from 7.50054e-007 to 7.50054e-007
Heightened Def Con from 7.50054e-007 to 7.50056e-007
Heightened Def Con from 7.50059e-007 to 7.50077e-007
Heightened Def Con from 7.50078e-007 to 7.50203e-007
Heightened Def Con from 7.50203e-007 +to 7.50203e-007
Heightened Def Con from 7.50203e-007 to 7.50328e-007
Heightened Def Con from 7.50328e-007 +to 7.51453e-007
Heightened Def Con from 7.51453e-007 to 7.51455e-007
Heightened Def Con from 7.51455e-007 to 7.52455e-007
Heightened Def Con from 7.52455e-007 to 7.54455e-007
Heightened Def Con from 7.54455e-007 to 7.54455e-007
Heightened Def Con from 7.54455e-007 to 7.54471e-007
Heightened Def Con from 7.54471e-007 to 7.54471e-007
Heightened Def Con from 7.54472e-007 to 7.54472e-007
Heightened Def Con from 7.54472e-007 to 7.55597e-007
Heightened Def Con from 7.55609e-007 to 7.55609e-007
Heightened Def Con from 7.55609e-007 to 7.55611e-007
Heightened Def Con from 7.55611e-007 to 7.56611e-007
Heightened Def Con from 7.56611e-007 to 7.56611e-007
Heightened Def Con from 7.56611e-007 to 7.57736e-007
Heightened Def Con from 7.58486e-007 to 7.58504e-007
Heightened Def Con from 7.58504e-007 to 7.58504e-007
Heightened Def Con from 7.58504e-007 to 7.58504e-007
Heightened Def Con from 7.58504e-007 to 7.5952e-007
Heightened Def Con from 7.59521e-007 to 7.59662e-007
Heightened Def Con from 7.59667e-007 to 7.59793e-007
Heightened Def Con from 7.59799e-007 to 7.60801e-007
Heightened Def Con from 7.60801e-007 to 7.60801e-007
Heightened Def Con from 7.60802e-007 to 7.61052e-007
Heightened Def Con from 7.61052e-007 to 7.62054e-007
Heightened Def Con from 7.62054e-007 to 7.62054e-007
Heightened Def Con from 7.62056e-007 to 7.62306e-007
Heightened Def Con from 7.63056e-007 to 7.63056e-007
Heightened Def Con from 7.63056e-007 +to 7.63056e-007
Heightened Def Con from 7.63056e-007 to 7.63056e-007
Heightened Def Con from 7.63056e-007 ++to 7.63072e-007
Heightened Def Con from 7.63072e-007 +to 7.63074e-007
Heightened Def Con from 7.63074e-007 to 7.63074e-007
Heightened Def Con from 7.63074e-007 to 7.63074e-007
Heightened Def Con from 7.63074e-007 to 7.63074e-007
Heightened Def Con from 7.63074e-007 to 7.63076e-007
Heightened Def Con from 7.63076e-007 +to 7.63076e-007
Heightened Def Con from 7.63076e-007 ++to 7.63076e-007
Heightened Def Con from 7.63076e-007 +to 7.63076e-007
Heightened Def Con from 7.63076e-007 to 7.63076e-007
Heightened Def Con from 7.63076e-007 +to 7.63091e-007
Heightened Def Con from 7.63091e-007 to 7.63091e-007
Heightened Def Con from 7.63091e-007 to 7.63091e-007
Heightened Def Con from 7.63091e-007 +to 7.64091e-007
Heightened Def Con from 7.64091e-007 to 7.64216e-007
Heightened Def Con from 7.64216e-007 +to 7.64218e-007
Heightened Def Con from 7.64218e-007 +++to 7.64218e-007
Heightened Def Con from 7.64218e-007 +to 7.64218e-007
Heightened Def Con from 7.64218e-007 +to 7.64218e-007
Heightened Def Con from 7.64218e-007 +to 7.64218e-007
Heightened Def Con from 7.64218e-007 ++++to 7.64218e-007
Heightened Def Con from 7.64218e-007 ++to 7.6422e-007
Heightened Def Con from 7.6422e-007 +to 7.64361e-007
Heightened Def Con from 7.64361e-007 +to 7.64361e-007
Heightened Def Con from 7.64361e-007 +to 7.64377e-007
Heightened Def Con from 7.64377e-007 +to 7.64377e-007
Heightened Def Con from 7.64377e-007 ++++to 7.64502e-007
Heightened Def Con from 7.64502e-007 +to 7.64627e-007
Heightened Def Con from 7.64627e-007 +to 7.64752e-007
Heightened Def Con from 7.64752e-007 ++to 7.64752e-007
Heightened Def Con from 7.64752e-007 +to 7.64752e-007
Heightened Def Con from 7.64752e-007 to 7.64877e-007
Heightened Def Con from 7.64877e-007 ++++to 7.64877e-007
Heightened Def Con from 7.64877e-007 ++to 7.64879e-007
Heightened Def Con from 7.64879e-007 +to 7.64879e-007
Heightened Def Con from 7.64879e-007 to 7.65006e-007
Heightened Def Con from 7.65006e-007 to 7.65006e-007
Heightened Def Con from 7.65006e-007 ++to 7.65006e-007
Heightened Def Con from 7.65006e-007 +to 7.66006e-007
Heightened Def Con from 7.74704e-007 +to 7.74829e-007
Heightened Def Con from 7.74829e-007 to 7.74829e-007
Heightened Def Con from 7.74829e-007 to 7.75845e-007
Heightened Def Con from 7.75849e-007 to 7.75849e-007
Heightened Def Con from 7.75849e-007 to 7.75851e-007
Heightened Def Con from 7.75851e-007 to 7.76853e-007
Heightened Def Con from 7.76853e-007 to 7.76885e-007
Heightened Def Con from 7.76885e-007 to 7.7701e-007
Heightened Def Con from 7.7701e-007 to 7.78012e-007
Heightened Def Con from 7.78012e-007 to 7.78016e-007
Heightened Def Con from 7.78023e-007 to 7.80023e-007
Heightened Def Con from 7.80492e-007 to 7.80617e-007
Heightened Def Con from 7.80617e-007 to 7.80648e-007
Heightened Def Con from 7.8068e-007 to 7.80682e-007
Heightened Def Con from 7.80682e-007 to 7.80682e-007
Heightened Def Con from 7.80682e-007 to 7.80682e-007
Heightened Def Con from 7.80682e-007 to 7.80713e-007
Heightened Def Con from 7.80713e-007 to 7.80715e-007
Heightened Def Con from 7.80715e-007 +to 7.80731e-007
Heightened Def Con from 7.80731e-007 to 7.80731e-007
Heightened Def Con from 7.80731e-007 ++to 7.81731e-007
Heightened Def Con from 7.81731e-007 ++to 7.81731e-007
Heightened Def Con from 7.81731e-007 ++to 7.81731e-007
Heightened Def Con from 7.81731e-007 +to 7.81731e-007
Heightened Def Con from 7.81731e-007 ++to 7.81733e-007
Heightened Def Con from 7.81737e-007 +++to 7.81737e-007
Heightened Def Con from 7.81737e-007 +to 7.81862e-007
Heightened Def Con from 7.81862e-007 +++++to 7.81862e-007
Heightened Def Con from 7.81862e-007 +to 7.81864e-007
Heightened Def Con from 7.81864e-007 to 7.81864e-007
Heightened Def Con from 7.81864e-007 ++to 7.8188e-007
Heightened Def Con from 7.8188e-007 to 7.8188e-007
Heightened Def Con from 7.8188e-007 to 7.8188e-007
Heightened Def Con from 7.8188e-007 to 7.8288e-007
Heightened Def Con from 7.8288e-007 to 7.8288e-007
Heightened Def Con from 7.8288e-007 +to 7.82896e-007
Heightened Def Con from 7.82896e-007 +++to 7.82896e-007
Heightened Def Con from 7.82896e-007 ++++++to 7.83021e-007
Heightened Def Con from 7.83021e-007 ++++++to 7.83021e-007
Heightened Def Con from 7.83021e-007 ++to 7.83146e-007
Heightened Def Con from 7.83146e-007 +to 7.83146e-007
Heightened Def Con from 7.83146e-007 +++to 7.83271e-007
Heightened Def Con from 7.83271e-007 ++++++to 7.83271e-007
Heightened Def Con from 7.83271e-007 +to 7.83271e-007
Heightened Def Con from 7.83271e-007 +to 7.83271e-007
Heightened Def Con from 7.83271e-007 to 7.83271e-007
Heightened Def Con from 7.83271e-007 ++to 7.83271e-007
Heightened Def Con from 7.83271e-007 ++to 7.83271e-007
Heightened Def Con from 7.83271e-007 +to 7.84271e-007
Heightened Def Con from 7.84271e-007 ++++to 7.84271e-007
Heightened Def Con from 7.84271e-007 ++to 7.84286e-007
Heightened Def Con from 7.84286e-007 ++to 7.84302e-007
Heightened Def Con from 7.84302e-007 +++to 7.84427e-007
Heightened Def Con from 7.84427e-007 ++++++++to 7.84427e-007
Heightened Def Con from 7.84427e-007 to 7.84427e-007
Heightened Def Con from 7.84427e-007 ++to 7.84552e-007
Heightened Def Con from 7.84552e-007 +to 7.84568e-007
Heightened Def Con from 7.84568e-007 to 7.84569e-007
Heightened Def Con from 7.8457e-007 ++to 7.84572e-007
Heightened Def Con from 7.84572e-007 to 7.84572e-007
Heightened Def Con from 7.84572e-007 to 7.85697e-007
Heightened Def Con from 7.85698e-007 to 7.85698e-007
Heightened Def Con from 7.85698e-007 to 7.857e-007
Heightened Def Con from 7.857e-007 to 7.8595e-007
Heightened Def Con from 7.86044e-007 to 7.86046e-007
Heightened Def Con from 7.86046e-007 to 7.86046e-007
Heightened Def Con from 7.86046e-007 to 7.87062e-007
Heightened Def Con from 7.87156e-007 to 7.87187e-007
Heightened Def Con from 7.87188e-007 to 7.8819e-007
Heightened Def Con from 7.8819e-007 to 7.88315e-007
Heightened Def Con from 7.88315e-007 to 7.88456e-007
Heightened Def Con from 7.88456e-007 to 7.88473e-007
Heightened Def Con from 7.88501e-007 to 7.88501e-007
Heightened Def Con from 7.88501e-007 to 7.89626e-007
Heightened Def Con from 7.89631e-007 to 7.89648e-007
Heightened Def Con from 7.89649e-007 to 7.89651e-007
Heightened Def Con from 7.89651e-007 to 7.89776e-007
Heightened Def Con from 7.89776e-007 to 7.90776e-007
Heightened Def Con from 7.90776e-007 to 7.90778e-007
Heightened Def Con from 7.90778e-007 to 7.90794e-007
Heightened Def Con from 7.90796e-007 to 7.90796e-007
Heightened Def Con from 7.90796e-007 to 7.91798e-007
Heightened Def Con from 7.91798e-007 to 7.91939e-007
Heightened Def Con from 7.91939e-007 to 7.91943e-007
Heightened Def Con from 7.91946e-007 to 7.92196e-007
Heightened Def Con from 7.92196e-007 to 7.92212e-007
Heightened Def Con from 7.92212e-007 to 7.92212e-007
Heightened Def Con from 7.92212e-007 to 7.92212e-007
Heightened Def Con from 7.92212e-007 +to 7.94228e-007
Heightened Def Con from 7.94228e-007 to 7.9423e-007
Heightened Def Con from 7.9423e-007 to 7.95355e-007
Heightened Def Con from 7.95449e-007 to 7.96574e-007
Heightened Def Con from 7.97051e-007 to 7.98053e-007
Heightened Def Con from 7.98054e-007 to 7.9807e-007
Heightened Def Con from 7.98072e-007 to 7.98072e-007
Heightened Def Con from 7.98072e-007 to 7.98213e-007
Heightened Def Con from 7.98214e-007 to 7.98464e-007
Heightened Def Con from 7.98497e-007 to 7.98499e-007
Heightened Def Con from 7.98499e-007 +++to 7.99499e-007
Heightened Def Con from 7.99499e-007 ++to 7.99499e-007
Heightened Def Con from 7.99499e-007 ++to 7.99499e-007
Heightened Def Con from 7.99499e-007 to 8.00499e-007
Heightened Def Con from 8.00499e-007 to 8.00499e-007
Heightened Def Con from 8.00499e-007 to 8.00499e-007
Heightened Def Con from 8.00499e-007 to 8.01499e-007
Heightened Def Con from 8.01499e-007 to 8.02499e-007
Heightened Def Con from 8.02499e-007 +to 8.03499e-007
Heightened Def Con from 8.0493e-007 to 8.05946e-007
Heightened Def Con from 8.05946e-007 to 8.0595e-007
Heightened Def Con from 8.05951e-007 to 8.06078e-007
Heightened Def Con from 8.06078e-007 to 8.0608e-007
Heightened Def Con from 8.0608e-007 to 8.06098e-007
Heightened Def Con from 8.061e-007 to 8.06225e-007
Heightened Def Con from 8.06225e-007 to 8.07225e-007
Heightened Def Con from 8.07225e-007 to 8.0735e-007
Heightened Def Con from 8.0735e-007 to 8.07352e-007
Heightened Def Con from 8.07352e-007 to 8.07354e-007
Heightened Def Con from 8.07354e-007 to 8.08479e-007
Heightened Def Con from 8.0873e-007 to 8.08734e-007
Heightened Def Con from 8.08734e-007 to 8.08736e-007
Heightened Def Con from 8.08736e-007 to 8.10736e-007
Heightened Def Con from 8.10768e-007 to 8.10768e-007
Heightened Def Con from 8.10768e-007 to 8.10769e-007
Heightened Def Con from 8.10769e-007 to 8.108e-007
Heightened Def Con from 8.10894e-007 +to 8.11019e-007
Heightened Def Con from 8.11019e-007 to 8.11019e-007
Heightened Def Con from 8.1102e-007 to 8.11052e-007
Heightened Def Con from 8.11079e-007 to 8.13079e-007
Heightened Def Con from 8.15141e-007 to 8.15141e-007
Heightened Def Con from 8.15141e-007 to 8.15391e-007
Heightened Def Con from 8.15392e-007 to 8.15517e-007
Heightened Def Con from 8.15517e-007 to 8.15517e-007
Heightened Def Con from 8.15517e-007 to 8.15517e-007
Heightened Def Con from 8.15517e-007 +to 8.15642e-007
Heightened Def Con from 8.15643e-007 to 8.16768e-007
Heightened Def Con from 8.16768e-007 to 8.16799e-007
Heightened Def Con from 8.16799e-007 to 8.16815e-007
Heightened Def Con from 8.16815e-007 to 8.16815e-007
Heightened Def Con from 8.16815e-007 to 8.16815e-007
Heightened Def Con from 8.16815e-007 to 8.16817e-007
Heightened Def Con from 8.16817e-007 to 8.16821e-007
Heightened Def Con from 8.16821e-007 +to 8.16821e-007
Heightened Def Con from 8.16821e-007 +to 8.16825e-007
Heightened Def Con from 8.16825e-007 +to 8.16841e-007
Heightened Def Con from 8.16841e-007 +to 8.16841e-007
Heightened Def Con from 8.16841e-007 ++to 8.16841e-007
Heightened Def Con from 8.16841e-007 +to 8.16841e-007
Heightened Def Con from 8.16841e-007 to 8.16841e-007
Heightened Def Con from 8.16841e-007 ++++++to 8.16841e-007
Heightened Def Con from 8.16841e-007 +to 8.16841e-007
Heightened Def Con from 8.16841e-007 to 8.16841e-007
Heightened Def Con from 8.16841e-007 ++to 8.16841e-007
Heightened Def Con from 8.16841e-007 ++++++++to 8.17966e-007
Heightened Def Con from 8.17966e-007 ++++++++to 8.17966e-007
Heightened Def Con from 8.17966e-007 ++++++++++++++++++to 8.18966e-007
Heightened Def Con from 8.18966e-007 +++++++++++++++++++to 8.18982e-007
Heightened Def Con from 8.18982e-007 +to 8.18982e-007
Heightened Def Con from 8.18982e-007 +++++++++++++++to 8.19982e-007
Heightened Def Con from 8.19982e-007 to 8.19982e-007
Heightened Def Con from 8.19982e-007 to 8.19982e-007
Heightened Def Con from 8.19982e-007 +to 8.20984e-007
Heightened Def Con from 8.20984e-007 +to 8.21984e-007
Heightened Def Con from 8.23792e-007 +to 8.24042e-007
Heightened Def Con from 8.24043e-007 to 8.24043e-007
Heightened Def Con from 8.24043e-007 to 8.24043e-007
Heightened Def Con from 8.24043e-007 +to 8.24168e-007
Heightened Def Con from 8.24281e-007 to 8.24531e-007
Heightened Def Con from 8.24535e-007 to 8.24535e-007
Heightened Def Con from 8.24535e-007 to 8.24537e-007
Heightened Def Con from 8.24537e-007 to 8.25537e-007
Heightened Def Con from 8.25537e-007 to 8.25537e-007
Heightened Def Con from 8.25537e-007 to 8.25553e-007
Heightened Def Con from 8.25553e-007 to 8.2557e-007
Heightened Def Con from 8.2557e-007 to 8.2557e-007
Heightened Def Con from 8.2557e-007 to 8.2557e-007
Heightened Def Con from 8.2557e-007 to 8.2557e-007
Heightened Def Con from 8.2557e-007 to 8.2757e-007
Heightened Def Con from 8.30291e-007 to 8.30291e-007
Heightened Def Con from 8.30291e-007 to 8.30293e-007
Heightened Def Con from 8.30293e-007 to 8.30543e-007
Heightened Def Con from 8.31321e-007 to 8.32321e-007
Heightened Def Con from 8.32321e-007 to 8.32321e-007
Heightened Def Con from 8.32323e-007 +to 8.33323e-007
Heightened Def Con from 8.34006e-007 to 8.34256e-007
Heightened Def Con from 8.34256e-007 to 8.34256e-007
Heightened Def Con from 8.34256e-007 to 8.3426e-007
Heightened Def Con from 8.3426e-007 to 8.3426e-007
Heightened Def Con from 8.3426e-007 to 8.34385e-007
Heightened Def Con from 8.34385e-007 to 8.34401e-007
Heightened Def Con from 8.34401e-007 to 8.34651e-007
Heightened Def Con from 8.34745e-007 to 8.34745e-007
Heightened Def Con from 8.34745e-007 to 8.3587e-007
Heightened Def Con from 8.36621e-007 to 8.36624e-007
Heightened Def Con from 8.36625e-007 to 8.36625e-007
Heightened Def Con from 8.36625e-007 to 8.36625e-007
Heightened Def Con from 8.36625e-007 +to 8.36627e-007
Heightened Def Con from 8.36627e-007 to 8.36627e-007
Heightened Def Con from 8.36627e-007 to 8.36643e-007
Heightened Def Con from 8.36643e-007 to 8.36768e-007
Heightened Def Con from 8.36768e-007 to 8.36768e-007
Heightened Def Con from 8.36768e-007 +to 8.36784e-007
Heightened Def Con from 8.36784e-007 +to 8.368e-007
Heightened Def Con from 8.368e-007 to 8.368e-007
Heightened Def Con from 8.368e-007 +to 8.3705e-007
Heightened Def Con from 8.37054e-007 ++to 8.37056e-007
Heightened Def Con from 8.37056e-007 +to 8.37056e-007
Heightened Def Con from 8.37056e-007 +to 8.37071e-007
Heightened Def Con from 8.37103e-007 to 8.37103e-007
Heightened Def Con from 8.37103e-007 to 8.39103e-007
Heightened Def Con from 8.39103e-007 to 8.39228e-007
Heightened Def Con from 8.39228e-007 to 8.40353e-007
Heightened Def Con from 8.40884e-007 to 8.40915e-007
Heightened Def Con from 8.41165e-007 to 8.41165e-007
Heightened Def Con from 8.41165e-007 to 8.43165e-007
Heightened Def Con from 8.43415e-007 to 8.43415e-007
Heightened Def Con from 8.43415e-007 to 8.43416e-007
Heightened Def Con from 8.43416e-007 to 8.43416e-007
Heightened Def Con from 8.43416e-007 to 8.44416e-007
Heightened Def Con from 8.44416e-007 to 8.44416e-007
Heightened Def Con from 8.44416e-007 to 8.44431e-007
Heightened Def Con from 8.44431e-007 to 8.44447e-007
Heightened Def Con from 8.44447e-007 to 8.44447e-007
Heightened Def Con from 8.44447e-007 to 8.44479e-007
Heightened Def Con from 8.4451e-007 to 8.4451e-007
Heightened Def Con from 8.4451e-007 to 8.44635e-007
Heightened Def Con from 8.44636e-007 to 8.46636e-007
Heightened Def Con from 8.46668e-007 to 8.47668e-007
Heightened Def Con from 8.47668e-007 to 8.47699e-007
Heightened Def Con from 8.47714e-007 to 8.4773e-007
Heightened Def Con from 8.4773e-007 to 8.4773e-007
Heightened Def Con from 8.4773e-007 to 8.4798e-007
Heightened Def Con from 8.48244e-007 to 8.48244e-007
Heightened Def Con from 8.48244e-007 to 8.4826e-007
Heightened Def Con from 8.48261e-007 to 8.50261e-007
Heightened Def Con from 8.50264e-007 to 8.51389e-007
Heightened Def Con from 8.51389e-007 to 8.51516e-007
Heightened Def Con from 8.51516e-007 to 8.52516e-007
Heightened Def Con from 8.52516e-007 to 8.52642e-007
Heightened Def Con from 8.52642e-007 ++to 8.52892e-007
Heightened Def Con from 8.52892e-007 to 8.53017e-007
Heightened Def Con from 8.53017e-007 to 8.53017e-007
Heightened Def Con from 8.53017e-007 +++to 8.53017e-007
Heightened Def Con from 8.53017e-007 to 8.53019e-007
Heightened Def Con from 8.53019e-007 +to 8.5316e-007
Heightened Def Con from 8.5316e-007 +to 8.5316e-007
Heightened Def Con from 8.5316e-007 to 8.53162e-007
Heightened Def Con from 8.53162e-007 to 8.53162e-007
Heightened Def Con from 8.53162e-007 +to 8.53162e-007
Heightened Def Con from 8.53162e-007 +to 8.53193e-007
Heightened Def Con from 8.53197e-007 to 8.53338e-007
Heightened Def Con from 8.53338e-007 to 8.54338e-007
Heightened Def Con from 8.54338e-007 ++++to 8.55338e-007
Heightened Def Con from 8.55338e-007 +to 8.56338e-007
Heightened Def Con from 8.58157e-007 +to 8.59157e-007
Heightened Def Con from 8.59384e-007 to 8.60385e-007
Heightened Def Con from 8.60385e-007 to 8.60635e-007
Heightened Def Con from 8.60635e-007 to 8.6176e-007
Heightened Def Con from 8.61763e-007 to 8.6189e-007
Heightened Def Con from 8.61921e-007 to 8.61921e-007
Heightened Def Con from 8.61921e-007 to 8.62923e-007
Heightened Def Con from 8.62923e-007 to 8.62923e-007
Heightened Def Con from 8.62923e-007 to 8.62924e-007
Heightened Def Con from 8.62924e-007 to 8.64924e-007
Heightened Def Con from 8.65799e-007 to 8.67799e-007
Heightened Def Con from 8.6783e-007 to 8.67845e-007
Heightened Def Con from 8.67846e-007 to 8.67971e-007
Heightened Def Con from 8.67971e-007 to 8.68986e-007
Heightened Def Con from 8.69018e-007 to 8.7002e-007
Heightened Def Con from 8.70025e-007 to 8.71027e-007
Heightened Def Con from 8.71027e-007 to 8.71029e-007
Heightened Def Con from 8.71033e-007 to 8.71035e-007
Heightened Def Con from 8.71035e-007 +to 8.71035e-007
Heightened Def Con from 8.71035e-007 +to 8.71035e-007
Heightened Def Con from 8.71035e-007 to 8.71035e-007
Heightened Def Con from 8.71035e-007 to 8.71039e-007
Heightened Def Con from 8.71039e-007 to 8.71165e-007
Heightened Def Con from 8.71165e-007 +to 8.7129e-007
Heightened Def Con from 8.7129e-007 to 8.7129e-007
Heightened Def Con from 8.7129e-007 +to 8.71292e-007
Heightened Def Con from 8.71292e-007 to 8.71293e-007
Heightened Def Con from 8.71293e-007 to 8.71294e-007
Heightened Def Con from 8.71294e-007 ++to 8.71296e-007
Heightened Def Con from 8.71301e-007 +++to 8.71301e-007
Heightened Def Con from 8.71301e-007 ++++to 8.71301e-007
Heightened Def Con from 8.71301e-007 to 8.71301e-007
Heightened Def Con from 8.71301e-007 +to 8.71301e-007
Heightened Def Con from 8.71301e-007 ++to 8.71301e-007
Heightened Def Con from 8.71301e-007 to 8.71318e-007
Heightened Def Con from 8.71318e-007 +to 8.71318e-007
Heightened Def Con from 8.71318e-007 to 8.71318e-007
Heightened Def Con from 8.71318e-007 to 8.71318e-007
Heightened Def Con from 8.71318e-007 +to 8.71318e-007
Heightened Def Con from 8.71318e-007 +to 8.71319e-007
Heightened Def Con from 8.71319e-007 to 8.71334e-007
Heightened Def Con from 8.71334e-007 +to 8.71334e-007
Heightened Def Con from 8.71334e-007 +to 8.71334e-007
Heightened Def Con from 8.71334e-007 to 8.71335e-007
Heightened Def Con from 8.71335e-007 to 8.71335e-007
Heightened Def Con from 8.71335e-007 to 8.71335e-007
Heightened Def Con from 8.71335e-007 to 8.71335e-007
Heightened Def Con from 8.71335e-007 to 8.71335e-007
Heightened Def Con from 8.71335e-007 to 8.71335e-007
Heightened Def Con from 8.71335e-007 to 8.71335e-007
Heightened Def Con from 8.71335e-007 to 8.71335e-007
Heightened Def Con from 8.71335e-007 to 8.71335e-007
Heightened Def Con from 8.71335e-007 +to 8.71335e-007
Heightened Def Con from 8.71335e-007 +++to 8.71351e-007
Heightened Def Con from 8.71351e-007 to 8.71351e-007
Heightened Def Con from 8.71351e-007 to 8.71351e-007
Heightened Def Con from 8.71351e-007 +to 8.71353e-007
Heightened Def Con from 8.71353e-007 to 8.71369e-007
Heightened Def Con from 8.71369e-007 to 8.71369e-007
Heightened Def Con from 8.71369e-007 +to 8.71384e-007
Heightened Def Con from 8.71384e-007 to 8.71385e-007
Heightened Def Con from 8.71385e-007 +to 8.71385e-007
Heightened Def Con from 8.71385e-007 to 8.71385e-007
Heightened Def Con from 8.71385e-007 ++to 8.71387e-007
Heightened Def Con from 8.71387e-007 ++++to 8.71387e-007
Heightened Def Con from 8.71387e-007 ++to 8.71418e-007
Heightened Def Con from 8.71418e-007 ++to 8.71434e-007
Heightened Def Con from 8.71434e-007 +to 8.72434e-007
Heightened Def Con from 8.72434e-007 +to 8.72434e-007
Heightened Def Con from 8.72434e-007 +to 8.72449e-007
Heightened Def Con from 8.72449e-007 +to 8.73449e-007
Heightened Def Con from 8.7345e-007 to 8.74465e-007
Heightened Def Con from 8.74465e-007 to 8.75466e-007
Heightened Def Con from 8.75466e-007 to 8.75484e-007
Heightened Def Con from 8.75485e-007 to 8.75501e-007
Heightened Def Con from 8.75501e-007 to 8.75503e-007
Heightened Def Con from 8.75503e-007 to 8.75504e-007
Heightened Def Con from 8.75504e-007 to 8.75754e-007
Heightened Def Con from 8.76232e-007 to 8.76359e-007
Heightened Def Con from 8.76371e-007 to 8.76371e-007
Heightened Def Con from 8.76371e-007 to 8.76402e-007
Heightened Def Con from 8.76402e-007 to 8.78402e-007
Heightened Def Con from 8.79152e-007 +to 8.79155e-007
Heightened Def Con from 8.79159e-007 to 8.79159e-007
Heightened Def Con from 8.79159e-007 to 8.79159e-007
Heightened Def Con from 8.79159e-007 to 8.7919e-007
Heightened Def Con from 8.79221e-007 to 8.79222e-007
Heightened Def Con from 8.79222e-007 to 8.80224e-007
Heightened Def Con from 8.80228e-007 to 8.80243e-007
Heightened Def Con from 8.80243e-007 to 8.80243e-007
Heightened Def Con from 8.80243e-007 to 8.80493e-007
Heightened Def Con from 8.805e-007 to 8.80625e-007
Heightened Def Con from 8.80625e-007 to 8.80625e-007
Heightened Def Con from 8.80625e-007 to 8.80875e-007
Heightened Def Con from 8.80879e-007 to 8.81004e-007
Heightened Def Con from 8.81004e-007 to 8.81004e-007
Heightened Def Con from 8.81004e-007 to 8.81004e-007
Heightened Def Con from 8.81005e-007 to 8.81005e-007
Heightened Def Con from 8.81005e-007 to 8.81255e-007
Heightened Def Con from 8.81512e-007 to 8.81528e-007
Heightened Def Con from 8.81528e-007 to 8.82528e-007
Heightened Def Con from 8.82528e-007 to 8.8253e-007
Heightened Def Con from 8.8253e-007 to 8.8278e-007
Heightened Def Con from 8.83095e-007 to 8.8422e-007
Heightened Def Con from 8.8422e-007 to 8.8422e-007
Heightened Def Con from 8.8422e-007 to 8.84251e-007
Heightened Def Con from 8.84251e-007 to 8.84255e-007
Heightened Def Con from 8.84255e-007 to 8.86255e-007
Heightened Def Con from 8.88443e-007 to 8.88445e-007
Heightened Def Con from 8.88445e-007 to 8.8846e-007
Heightened Def Con from 8.8846e-007 to 8.8846e-007
Heightened Def Con from 8.8846e-007 to 8.88492e-007
Heightened Def Con from 8.88531e-007 to 8.88533e-007
Heightened Def Con from 8.88534e-007 to 8.88535e-007
Heightened Def Con from 8.88535e-007 to 8.88535e-007
Heightened Def Con from 8.88535e-007 +to 8.88537e-007
Heightened Def Con from 8.88537e-007 to 8.89662e-007
Heightened Def Con from 8.89662e-007 ++to 8.89787e-007
Heightened Def Con from 8.89818e-007 to 8.89818e-007
Heightened Def Con from 8.89818e-007 to 8.89943e-007
Heightened Def Con from 8.89943e-007 to 8.89943e-007
Heightened Def Con from 8.89943e-007 to 8.89943e-007
Heightened Def Con from 8.89943e-007 ++to 8.90193e-007
Heightened Def Con from 8.90233e-007 to 8.91248e-007
Heightened Def Con from 8.91252e-007 to 8.91253e-007
Heightened Def Con from 8.91253e-007 to 8.91253e-007
Heightened Def Con from 8.91253e-007 to 8.91253e-007
Heightened Def Con from 8.91253e-007 to 8.91253e-007
Heightened Def Con from 8.91253e-007 to 8.91253e-007
Heightened Def Con from 8.91253e-007 to 8.91269e-007
Heightened Def Con from 8.91269e-007 to 8.913e-007
Heightened Def Con from 8.91301e-007 to 8.91301e-007
Heightened Def Con from 8.91301e-007 to 8.91301e-007
Heightened Def Con from 8.91301e-007 +to 8.91316e-007
Heightened Def Con from 8.91317e-007 to 8.91317e-007
Heightened Def Con from 8.91317e-007 +to 8.91317e-007
Heightened Def Con from 8.91317e-007 +to 8.91317e-007
Heightened Def Con from 8.91317e-007 +to 8.91317e-007
Heightened Def Con from 8.91317e-007 ++to 8.91442e-007
Heightened Def Con from 8.91442e-007 to 8.91583e-007
Heightened Def Con from 8.91583e-007 to 8.916e-007
Heightened Def Con from 8.916e-007 to 8.91601e-007
Heightened Def Con from 8.91601e-007 to 8.91601e-007
Heightened Def Con from 8.91601e-007 to 8.91603e-007
Heightened Def Con from 8.91603e-007 to 8.91605e-007
Heightened Def Con from 8.91605e-007 ++to 8.93605e-007
Heightened Def Con from 8.97683e-007 to 8.97683e-007
Heightened Def Con from 8.97683e-007 to 8.97808e-007
Heightened Def Con from 8.97808e-007 to 8.99808e-007
Heightened Def Con from 9.00136e-007 to 9.00261e-007
Heightened Def Con from 9.00261e-007 to 9.02261e-007
Heightened Def Con from 9.02261e-007 to 9.02386e-007
Heightened Def Con from 9.02719e-007 to 9.02969e-007
Heightened Def Con from 9.03219e-007 to 9.03219e-007
Heightened Def Con from 9.03219e-007 to 9.05219e-007
Heightened Def Con from 9.05251e-007 to 9.06266e-007
Heightened Def Con from 9.06271e-007 to 9.06271e-007
Heightened Def Con from 9.06272e-007 to 9.06413e-007
Heightened Def Con from 9.06413e-007 to 9.06413e-007
Heightened Def Con from 9.06413e-007 to 9.06415e-007
Heightened Def Con from 9.06415e-007 to 9.06446e-007
Heightened Def Con from 9.06446e-007 +to 9.06446e-007
Heightened Def Con from 9.06446e-007 +to 9.06448e-007
Heightened Def Con from 9.06448e-007 to 9.06448e-007
Heightened Def Con from 9.06448e-007 to 9.06573e-007
Heightened Def Con from 9.06573e-007 to 9.06589e-007
Heightened Def Con from 9.06589e-007 to 9.06714e-007
Heightened Def Con from 9.06714e-007 to 9.06714e-007
Heightened Def Con from 9.06714e-007 to 9.07839e-007
Heightened Def Con from 9.07878e-007 +to 9.07878e-007
Heightened Def Con from 9.07878e-007 to 9.07878e-007
Heightened Def Con from 9.07878e-007 to 9.07878e-007
Heightened Def Con from 9.07878e-007 ++to 9.07878e-007
Heightened Def Con from 9.07878e-007 ++to 9.0788e-007
Heightened Def Con from 9.0788e-007 +to 9.0788e-007
Heightened Def Con from 9.0788e-007 to 9.07882e-007
Heightened Def Con from 9.07882e-007 to 9.07882e-007
Heightened Def Con from 9.07882e-007 to 9.07884e-007
Heightened Def Con from 9.07884e-007 ++to 9.08009e-007
Heightened Def Con from 9.08009e-007 +to 9.08011e-007
Heightened Def Con from 9.08013e-007 to 9.08013e-007
Heightened Def Con from 9.08013e-007 +to 9.08013e-007
Heightened Def Con from 9.08013e-007 ++to 9.08028e-007
Heightened Def Con from 9.08028e-007 ++to 9.0803e-007
Heightened Def Con from 9.0803e-007 to 9.08032e-007
Heightened Def Con from 9.08032e-007 to 9.08032e-007
Heightened Def Con from 9.08032e-007 to 9.08032e-007
Heightened Def Con from 9.08032e-007 +to 9.08032e-007
Heightened Def Con from 9.08032e-007 +to 9.09032e-007
Heightened Def Con from 9.09032e-007 ++to 9.10032e-007
Heightened Def Con from 9.10032e-007 +to 9.11032e-007
Heightened Def Con from 9.11033e-007 to 9.11033e-007
Heightened Def Con from 9.11033e-007 to 9.12033e-007
Heightened Def Con from 9.12033e-007 to 9.13158e-007
Heightened Def Con from 9.13408e-007 to 9.14424e-007
Heightened Def Con from 9.14424e-007 to 9.1444e-007
Heightened Def Con from 9.1444e-007 to 9.14442e-007
Heightened Def Con from 9.14442e-007 to 9.1446e-007
Heightened Def Con from 9.1446e-007 to 9.1646e-007
Heightened Def Con from 9.16464e-007 to 9.16464e-007
Heightened Def Con from 9.16465e-007 to 9.16482e-007
Heightened Def Con from 9.1649e-007 to 9.1674e-007
Heightened Def Con from 9.16744e-007 to 9.16747e-007
Heightened Def Con from 9.16747e-007 to 9.18747e-007
Heightened Def Con from 9.18761e-007 to 9.18761e-007
Heightened Def Con from 9.18769e-007 to 9.18896e-007
Heightened Def Con from 9.18897e-007 to 9.18897e-007
Heightened Def Con from 9.18898e-007 to 9.20898e-007
Heightened Def Con from 9.2296e-007 to 9.23101e-007
Heightened Def Con from 9.23195e-007 to 9.25195e-007
Heightened Def Con from 9.25206e-007 to 9.25206e-007
Heightened Def Con from 9.25206e-007 to 9.25207e-007
Heightened Def Con from 9.25207e-007 ++to 9.25457e-007
Heightened Def Con from 9.25457e-007 to 9.25461e-007
Heightened Def Con from 9.25466e-007 +to 9.25466e-007
Heightened Def Con from 9.25466e-007 to 9.25483e-007
Heightened Def Con from 9.25487e-007 to 9.25612e-007
Heightened Def Con from 9.25631e-007 to 9.26646e-007
Heightened Def Con from 9.26646e-007 to 9.26648e-007
Heightened Def Con from 9.26648e-007 to 9.27773e-007
Heightened Def Con from 9.27773e-007 ++++to 9.27773e-007
Heightened Def Con from 9.27773e-007 ++to 9.27898e-007
Heightened Def Con from 9.27898e-007 to 9.27898e-007
Heightened Def Con from 9.27899e-007 to 9.28039e-007
Heightened Def Con from 9.28039e-007 to 9.28164e-007
Heightened Def Con from 9.2963e-007 to 9.2977e-007
Heightened Def Con from 9.29803e-007 to 9.29821e-007
Heightened Def Con from 9.29825e-007 to 9.29857e-007
Heightened Def Con from 9.2997e-007 to 9.2997e-007
Heightened Def Con from 9.2997e-007 to 9.30986e-007
Heightened Def Con from 9.30986e-007 to 9.31111e-007
Heightened Def Con from 9.31111e-007 to 9.32127e-007
Heightened Def Con from 9.32182e-007 to 9.32309e-007
Heightened Def Con from 9.32309e-007 to 9.32309e-007
Heightened Def Con from 9.32311e-007 to 9.34311e-007
Heightened Def Con from 9.34342e-007 to 9.34342e-007
Heightened Def Con from 9.34342e-007 to 9.34344e-007
Heightened Def Con from 9.34344e-007 +to 9.35344e-007
Heightened Def Con from 9.35625e-007 to 9.36641e-007
Heightened Def Con from 9.38649e-007 to 9.38649e-007
Heightened Def Con from 9.38649e-007 to 9.39651e-007
Heightened Def Con from 9.39651e-007 to 9.39653e-007
Heightened Def Con from 9.39653e-007 to 9.40669e-007
Heightened Def Con from 9.40669e-007 to 9.407e-007
Heightened Def Con from 9.40702e-007 to 9.40702e-007
Heightened Def Con from 9.40702e-007 to 9.41827e-007
Heightened Def Con from 9.41831e-007 to 9.41833e-007
Heightened Def Con from 9.41833e-007 to 9.4196e-007
Heightened Def Con from 9.4196e-007 to 9.4221e-007
Heightened Def Con from 9.4246e-007 to 9.4246e-007
Heightened Def Con from 9.4246e-007 +to 9.42475e-007
Heightened Def Con from 9.42507e-007 to 9.42522e-007
Heightened Def Con from 9.42522e-007 to 9.42522e-007
Heightened Def Con from 9.42522e-007 to 9.42522e-007
Heightened Def Con from 9.42522e-007 to 9.42524e-007
Heightened Def Con from 9.42524e-007 to 9.42524e-007
Heightened Def Con from 9.42524e-007 +to 9.42524e-007
Heightened Def Con from 9.42524e-007 to 9.42524e-007
Heightened Def Con from 9.42524e-007 to 9.42524e-007
Heightened Def Con from 9.42524e-007 to 9.42525e-007
Heightened Def Con from 9.42525e-007 to 9.4254e-007
Heightened Def Con from 9.4254e-007 to 9.42541e-007
Heightened Def Con from 9.42541e-007 to 9.42556e-007
Heightened Def Con from 9.42584e-007 to 9.42709e-007
Heightened Def Con from 9.42709e-007 to 9.42711e-007
Heightened Def Con from 9.42715e-007 to 9.4273e-007
Heightened Def Con from 9.4273e-007 to 9.42855e-007
Heightened Def Con from 9.42939e-007 to 9.42939e-007
Heightened Def Con from 9.42939e-007 +to 9.42939e-007
Heightened Def Con from 9.42939e-007 +to 9.42939e-007
Heightened Def Con from 9.42939e-007 to 9.42939e-007
Heightened Def Con from 9.42939e-007 to 9.43189e-007
Heightened Def Con from 9.43502e-007 to 9.44502e-007
Heightened Def Con from 9.44502e-007 to 9.44502e-007
Heightened Def Con from 9.44504e-007 +to 9.44506e-007
Heightened Def Con from 9.44506e-007 +to 9.44521e-007
Heightened Def Con from 9.44553e-007 to 9.44568e-007
Heightened Def Con from 9.446e-007 to 9.44602e-007
Heightened Def Con from 9.44602e-007 to 9.44603e-007
Heightened Def Con from 9.44603e-007 to 9.44603e-007
Heightened Def Con from 9.44603e-007 to 9.44728e-007
Heightened Def Con from 9.44729e-007 to 9.4473e-007
Heightened Def Con from 9.4473e-007 to 9.4473e-007
Heightened Def Con from 9.4473e-007 to 9.4473e-007
Heightened Def Con from 9.4473e-007 to 9.44732e-007
Heightened Def Con from 9.44732e-007 to 9.44732e-007
Heightened Def Con from 9.44732e-007 to 9.44734e-007
Heightened Def Con from 9.44734e-007 to 9.44738e-007
Heightened Def Con from 9.44738e-007 to 9.44754e-007
Heightened Def Con from 9.44754e-007 to 9.44754e-007
Heightened Def Con from 9.44754e-007 to 9.45879e-007
Heightened Def Con from 9.45879e-007 to 9.4591e-007
Heightened Def Con from 9.45914e-007 to 9.47914e-007
Heightened Def Con from 9.47918e-007 to 9.49918e-007
Heightened Def Con from 9.56044e-007 to 9.56046e-007
Heightened Def Con from 9.56047e-007 to 9.57062e-007
Heightened Def Con from 9.57108e-007 to 9.58123e-007
Heightened Def Con from 9.58124e-007 to 9.59249e-007
Heightened Def Con from 9.5925e-007 to 9.5925e-007
Heightened Def Con from 9.59251e-007 +to 9.60253e-007
Heightened Def Con from 9.60257e-007 to 9.60257e-007
Heightened Def Con from 9.60257e-007 to 9.60507e-007
Heightened Def Con from 9.60508e-007 to 9.60508e-007
Heightened Def Con from 9.60508e-007 to 9.60509e-007
Heightened Def Con from 9.6051e-007 to 9.60514e-007
Heightened Def Con from 9.60514e-007 to 9.60518e-007
Heightened Def Con from 9.60518e-007 ++to 9.60643e-007
Heightened Def Con from 9.60643e-007 to 9.61658e-007
Heightened Def Con from 9.61658e-007 to 9.61658e-007
Heightened Def Con from 9.61658e-007 to 9.6166e-007
Heightened Def Con from 9.6166e-007 to 9.6166e-007
Heightened Def Con from 9.61661e-007 +to 9.61676e-007
Heightened Def Con from 9.61677e-007 to 9.62677e-007
Heightened Def Con from 9.62677e-007 to 9.62693e-007
Heightened Def Con from 9.62693e-007 to 9.63818e-007
Heightened Def Con from 9.63818e-007 to 9.63818e-007
Heightened Def Con from 9.63818e-007 to 9.63818e-007
Heightened Def Con from 9.63818e-007 to 9.6382e-007
Heightened Def Con from 9.6382e-007 to 9.6582e-007
Heightened Def Con from 9.68695e-007 to 9.68712e-007
Heightened Def Con from 9.68712e-007 to 9.68962e-007
Heightened Def Con from 9.69294e-007 to 9.70419e-007
Heightened Def Con from 9.70424e-007 to 9.71549e-007
Heightened Def Con from 9.73313e-007 to 9.74438e-007
Heightened Def Con from 9.74442e-007 to 9.75567e-007
Heightened Def Con from 9.75567e-007 to 9.76692e-007
Heightened Def Con from 9.77489e-007 to 9.78489e-007
Heightened Def Con from 9.78489e-007 to 9.78739e-007
Heightened Def Con from 9.78739e-007 to 9.78739e-007
Heightened Def Con from 9.78739e-007 +to 9.78755e-007
Heightened Def Con from 9.78755e-007 to 9.7877e-007
Heightened Def Con from 9.7877e-007 to 9.78786e-007
Heightened Def Con from 9.78786e-007 to 9.7879e-007
Heightened Def Con from 9.7879e-007 to 9.79792e-007
Heightened Def Con from 9.79792e-007 to 9.79919e-007
Heightened Def Con from 9.7992e-007 to 9.8006e-007
Heightened Def Con from 9.80065e-007 to 9.80081e-007
Heightened Def Con from 9.80081e-007 to 9.81206e-007
Heightened Def Con from 9.81207e-007 to 9.81207e-007
Heightened Def Con from 9.81207e-007 to 9.81207e-007
Heightened Def Con from 9.81207e-007 to 9.81348e-007
Heightened Def Con from 9.81348e-007 to 9.81364e-007
Heightened Def Con from 9.81364e-007 to 9.81489e-007
Heightened Def Con from 9.81489e-007 to 9.82614e-007
Heightened Def Con from 9.83052e-007 to 9.83193e-007
Heightened Def Con from 9.83193e-007 to 9.83333e-007
Heightened Def Con from 9.83333e-007 to 9.83333e-007
Heightened Def Con from 9.83333e-007 to 9.83334e-007
Heightened Def Con from 9.83334e-007 to 9.8335e-007
Heightened Def Con from 9.83359e-007 to 9.83359e-007
Heightened Def Con from 9.83359e-007 to 9.83376e-007
Heightened Def Con from 9.83376e-007 to 9.83408e-007
Heightened Def Con from 9.83408e-007 to 9.85408e-007
Heightened Def Con from 9.92413e-007 to 9.92417e-007
Heightened Def Con from 9.9242e-007 to 9.9256e-007
Heightened Def Con from 9.9256e-007 to 9.92591e-007
Heightened Def Con from 9.92631e-007 to 9.92634e-007
Heightened Def Con from 9.92635e-007 to 9.92775e-007
Heightened Def Con from 9.92779e-007 to 9.9292e-007
Heightened Def Con from 9.93139e-007 to 9.93389e-007
Heightened Def Con from 9.96028e-007 to 9.96153e-007
Heightened Def Con from 9.96153e-007 to 9.96171e-007
Heightened Def Con from 9.96171e-007 to 9.96171e-007
Heightened Def Con from 9.96171e-007 to 9.96187e-007
Heightened Def Con from 9.96187e-007 to 9.96187e-007
Heightened Def Con from 9.96187e-007 to 9.96187e-007
Heightened Def Con from 9.96187e-007 to 9.96189e-007
Heightened Def Con from 9.96191e-007 to 9.96318e-007
Heightened Def Con from 9.96318e-007 ++to 9.96318e-007
Heightened Def Con from 9.96318e-007 +to 9.9632e-007
Heightened Def Con from 9.9632e-007 to 9.9632e-007
Heightened Def Con from 9.9632e-007 to 9.9632e-007
Heightened Def Con from 9.9632e-007 to 9.97445e-007
Heightened Def Con from 9.97445e-007 to 9.97445e-007
Heightened Def Con from 9.97445e-007 to 9.97445e-007
Heightened Def Con from 9.97445e-007 to 9.97445e-007
Heightened Def Con from 9.97445e-007 to 9.98445e-007
Heightened Def Con from 9.98445e-007 to 9.98445e-007
Heightened Def Con from 9.98445e-007 to 9.99445e-007
Heightened Def Con from 9.99445e-007 to 9.99445e-007
Heightened Def Con from 9.99445e-007 to 9.99445e-007
Heightened Def Con from 9.99445e-007 +to 9.99449e-007
Heightened Def Con from 9.99449e-007 to 9.99449e-007
Heightened Def Con from 9.99449e-007 +to 9.99574e-007
Heightened Def Con from 9.99825e-007 to 1.00083e-006
Heightened Def Con from 1.00083e-006 to 1.00083e-006
Heightened Def Con from 1.00083e-006 to 1.00084e-006
Heightened Def Con from 1.00084e-006 to 1.00097e-006
Heightened Def Con from 1.00097e-006 to 1.00199e-006
Heightened Def Con from 1.00199e-006 to 1.00201e-006
Heightened Def Con from 1.00201e-006 to 1.00226e-006
Heightened Def Con from 1.00305e-006 to 1.00405e-006
Heightened Def Con from 1.00405e-006 to 1.00405e-006
Heightened Def Con from 1.00405e-006 to 1.00605e-006
Heightened Def Con from 1.00606e-006 to 1.00606e-006
Heightened Def Con from 1.00606e-006 to 1.00607e-006
Heightened Def Con from 1.00607e-006 to 1.0072e-006
Heightened Def Con from 1.00723e-006 to 1.00736e-006
Heightened Def Con from 1.00736e-006 to 1.00738e-006
Heightened Def Con from 1.00738e-006 to 1.00751e-006
Heightened Def Con from 1.00751e-006 to 1.00764e-006
Heightened Def Con from 1.00764e-006 to 1.00876e-006
Heightened Def Con from 1.00876e-006 to 1.00876e-006
Heightened Def Con from 1.00876e-006 to 1.01076e-006
Heightened Def Con from 1.01077e-006 to 1.0108e-006
Heightened Def Con from 1.0108e-006 to 1.01093e-006
Heightened Def Con from 1.01093e-006 to 1.01193e-006
Heightened Def Con from 1.01193e-006 to 1.01193e-006
Heightened Def Con from 1.01193e-006 to 1.01293e-006
Heightened Def Con from 1.01293e-006 to 1.01394e-006
Heightened Def Con from 1.014e-006 to 1.014e-006
Heightened Def Con from 1.01401e-006 to 1.01402e-006
Heightened Def Con from 1.01402e-006 to 1.01402e-006
Heightened Def Con from 1.01402e-006 to 1.01427e-006
Heightened Def Con from 1.01452e-006 to 1.01452e-006
Heightened Def Con from 1.01452e-006 to 1.01465e-006
Heightened Def Con from 1.01465e-006 to 1.01577e-006
Heightened Def Con from 1.01577e-006 to 1.01579e-006
Heightened Def Con from 1.01579e-006 to 1.01579e-006
Heightened Def Con from 1.01579e-006 to 1.01579e-006
Heightened Def Con from 1.01579e-006 to 1.01579e-006
Heightened Def Con from 1.01579e-006 to 1.01579e-006
Heightened Def Con from 1.01579e-006 to 1.01579e-006
Heightened Def Con from 1.01579e-006 to 1.01679e-006
Heightened Def Con from 1.01679e-006 to 1.01692e-006
Heightened Def Con from 1.01692e-006 to 1.01692e-006
Heightened Def Con from 1.01692e-006 to 1.01706e-006
Heightened Def Con from 1.01706e-006 +to 1.01707e-006
Heightened Def Con from 1.01707e-006 to 1.0172e-006
Heightened Def Con from 1.0172e-006 to 1.0172e-006
Heightened Def Con from 1.0172e-006 +to 1.01733e-006
Heightened Def Con from 1.01733e-006 to 1.01833e-006
Heightened Def Con from 1.01833e-006 to 1.01833e-006
Heightened Def Con from 1.01833e-006 +to 1.01845e-006
Heightened Def Con from 1.01845e-006 to 1.01858e-006
Heightened Def Con from 1.01858e-006 to 1.02058e-006
Heightened Def Con from 1.02058e-006 to 1.02083e-006
Heightened Def Con from 1.02437e-006 to 1.0245e-006
Heightened Def Con from 1.02475e-006 to 1.02477e-006
Heightened Def Con from 1.02479e-006 to 1.02491e-006
Heightened Def Con from 1.02491e-006 to 1.02505e-006
Heightened Def Con from 1.02521e-006 to 1.02633e-006
Heightened Def Con from 1.02634e-006 to 1.02734e-006
Heightened Def Con from 1.02734e-006 to 1.02735e-006
Heightened Def Con from 1.02735e-006 to 1.02835e-006
Heightened Def Con from 1.02836e-006 to 1.02861e-006
Heightened Def Con from 1.02886e-006 to 1.03086e-006
Heightened Def Con from 1.03112e-006 to 1.03212e-006
Heightened Def Con from 1.03212e-006 to 1.03213e-006
Heightened Def Con from 1.03213e-006 to 1.03213e-006
Heightened Def Con from 1.03213e-006 to 1.03214e-006
Heightened Def Con from 1.03214e-006 to 1.03214e-006
Heightened Def Con from 1.03214e-006 to 1.03314e-006
Heightened Def Con from 1.03314e-006 +to 1.03314e-006
Heightened Def Con from 1.03314e-006 to 1.03514e-006
Heightened Def Con from 1.03514e-006 to 1.03539e-006
Heightened Def Con from 1.03539e-006 to 1.03539e-006
Heightened Def Con from 1.03539e-006 to 1.03551e-006
Heightened Def Con from 1.03551e-006 to 1.03664e-006
Heightened Def Con from 1.03664e-006 to 1.03667e-006
Heightened Def Con from 1.03667e-006 to 1.03681e-006
Heightened Def Con from 1.03682e-006 to 1.03794e-006
Heightened Def Con from 1.03795e-006 to 1.03896e-006
Heightened Def Con from 1.03896e-006 to 1.04096e-006
Heightened Def Con from 1.04346e-006 to 1.04448e-006
Heightened Def Con from 1.04448e-006 to 1.04448e-006
Heightened Def Con from 1.04448e-006 to 1.04648e-006
Heightened Def Con from 1.04679e-006 to 1.04781e-006
Heightened Def Con from 1.04781e-006 to 1.04883e-006
Heightened Def Con from 1.04883e-006 to 1.04883e-006
Heightened Def Con from 1.04883e-006 to 1.04996e-006
Heightened Def Con from 1.04996e-006 to 1.05021e-006
Heightened Def Con from 1.05021e-006 to 1.05021e-006
Heightened Def Con from 1.05021e-006 to 1.05021e-006
Heightened Def Con from 1.05021e-006 to 1.05024e-006
Heightened Def Con from 1.05024e-006 to 1.05024e-006
Heightened Def Con from 1.05024e-006 to 1.05024e-006
Heightened Def Con from 1.05024e-006 to 1.05024e-006
Heightened Def Con from 1.05024e-006 to 1.05024e-006
Heightened Def Con from 1.05024e-006 to 1.05037e-006
Heightened Def Con from 1.05037e-006 +to 1.05151e-006
Heightened Def Con from 1.05151e-006 to 1.05151e-006
Heightened Def Con from 1.05151e-006 to 1.05153e-006
Heightened Def Con from 1.05153e-006 to 1.05153e-006
Heightened Def Con from 1.05153e-006 to 1.05153e-006
Heightened Def Con from 1.05153e-006 +to 1.05153e-006
Heightened Def Con from 1.05153e-006 ++to 1.05165e-006
Heightened Def Con from 1.05169e-006 to 1.05169e-006
Heightened Def Con from 1.05169e-006 to 1.05169e-006
Heightened Def Con from 1.05169e-006 +to 1.05169e-006
Heightened Def Con from 1.05169e-006 +to 1.05269e-006
Heightened Def Con from 1.05269e-006 to 1.05269e-006
Heightened Def Con from 1.05269e-006 to 1.05269e-006
Heightened Def Con from 1.05269e-006 to 1.05269e-006
Heightened Def Con from 1.05269e-006 to 1.05272e-006
Heightened Def Con from 1.05272e-006 +to 1.05272e-006
Heightened Def Con from 1.05272e-006 +to 1.05272e-006
Heightened Def Con from 1.05272e-006 to 1.05286e-006
Heightened Def Con from 1.05286e-006 to 1.05286e-006
Heightened Def Con from 1.05286e-006 +to 1.05286e-006
Heightened Def Con from 1.05286e-006 to 1.05286e-006
Heightened Def Con from 1.05286e-006 to 1.05299e-006
Heightened Def Con from 1.05299e-006 to 1.05299e-006
Heightened Def Con from 1.05299e-006 to 1.05302e-006
Heightened Def Con from 1.05302e-006 +to 1.05302e-006
Heightened Def Con from 1.05302e-006 to 1.05302e-006
Heightened Def Con from 1.05302e-006 to 1.05316e-006
Heightened Def Con from 1.05316e-006 to 1.05329e-006
Heightened Def Con from 1.05329e-006 to 1.05329e-006
Heightened Def Con from 1.05329e-006 to 1.05329e-006
Heightened Def Con from 1.05329e-006 to 1.05329e-006
Heightened Def Con from 1.05329e-006 to 1.0533e-006
Heightened Def Con from 1.0533e-006 +to 1.05343e-006
Heightened Def Con from 1.05343e-006 +to 1.05355e-006
Heightened Def Con from 1.05355e-006 to 1.05368e-006
Heightened Def Con from 1.05368e-006 to 1.05368e-006
Heightened Def Con from 1.05368e-006 to 1.05368e-006
Heightened Def Con from 1.05368e-006 to 1.05371e-006
Heightened Def Con from 1.05371e-006 to 1.05396e-006
Heightened Def Con from 1.05396e-006 to 1.05509e-006
Heightened Def Con from 1.05512e-006 to 1.05512e-006
Heightened Def Con from 1.05512e-006 to 1.05526e-006
Heightened Def Con from 1.05526e-006 to 1.05527e-006
Heightened Def Con from 1.05527e-006 to 1.0554e-006
Heightened Def Con from 1.0554e-006 to 1.0554e-006
Heightened Def Con from 1.0554e-006 to 1.05653e-006
Heightened Def Con from 1.05653e-006 to 1.05665e-006
Heightened Def Con from 1.05665e-006 to 1.05667e-006
Heightened Def Con from 1.05667e-006 to 1.05669e-006
Heightened Def Con from 1.05669e-006 to 1.05869e-006
Heightened Def Con from 1.06072e-006 to 1.06172e-006
Heightened Def Con from 1.06172e-006 to 1.06173e-006
Heightened Def Con from 1.06173e-006 to 1.06198e-006
Heightened Def Con from 1.06198e-006 to 1.06299e-006
Heightened Def Con from 1.06299e-006 to 1.06299e-006
Heightened Def Con from 1.06299e-006 to 1.06302e-006
Heightened Def Con from 1.06302e-006 to 1.06302e-006
Heightened Def Con from 1.06302e-006 to 1.06302e-006
Heightened Def Con from 1.06302e-006 to 1.06316e-006
Heightened Def Con from 1.06319e-006 to 1.06319e-006
Heightened Def Con from 1.06319e-006 to 1.06319e-006
Heightened Def Con from 1.06319e-006 to 1.06332e-006
Heightened Def Con from 1.06332e-006 to 1.06335e-006
Heightened Def Con from 1.06335e-006 to 1.0636e-006
Heightened Def Con from 1.06376e-006 to 1.06388e-006
Heightened Def Con from 1.06388e-006 to 1.06501e-006
Heightened Def Con from 1.06526e-006 to 1.06526e-006
Heightened Def Con from 1.06526e-006 to 1.06539e-006
Heightened Def Con from 1.06539e-006 to 1.0664e-006
Heightened Def Con from 1.06646e-006 to 1.06646e-006
Heightened Def Con from 1.06646e-006 to 1.06647e-006
Heightened Def Con from 1.06647e-006 to 1.06847e-006
Heightened Def Con from 1.06957e-006 to 1.06971e-006
Heightened Def Con from 1.06975e-006 to 1.07175e-006
Heightened Def Con from 1.086e-006 to 1.086e-006
Heightened Def Con from 1.086e-006 to 1.08713e-006
Heightened Def Con from 1.08738e-006 to 1.08938e-006
Heightened Def Con from 1.08942e-006 to 1.09042e-006
Heightened Def Con from 1.09042e-006 to 1.09067e-006
Heightened Def Con from 1.0907e-006 to 1.09084e-006
Heightened Def Con from 1.09183e-006 to 1.09295e-006
Heightened Def Con from 1.09328e-006 to 1.09353e-006
Heightened Def Con from 1.09359e-006 to 1.09559e-006
Heightened Def Con from 1.09909e-006 to 1.09912e-006
Heightened Def Con from 1.09916e-006 to 1.10029e-006
Heightened Def Con from 1.10029e-006 to 1.10032e-006
Heightened Def Con from 1.10085e-006 to 1.10285e-006
Heightened Def Con from 1.10285e-006 to 1.1031e-006
Heightened Def Con from 1.10312e-006 to 1.10414e-006
Heightened Def Con from 1.10418e-006 to 1.10443e-006
Heightened Def Con from 1.10518e-006 to 1.10532e-006
Heightened Def Con from 1.10535e-006 to 1.10735e-006
Heightened Def Con from 1.10746e-006 to 1.10946e-006
Heightened Def Con from 1.11655e-006 to 1.11756e-006
Heightened Def Con from 1.1176e-006 to 1.1186e-006
Heightened Def Con from 1.1186e-006 to 1.11861e-006
Heightened Def Con from 1.11861e-006 to 1.12061e-006
Heightened Def Con from 1.12064e-006 to 1.12065e-006
Heightened Def Con from 1.12065e-006 to 1.12066e-006
Heightened Def Con from 1.12066e-006 to 1.12078e-006
Heightened Def Con from 1.12078e-006 to 1.12191e-006
Heightened Def Con from 1.12479e-006 to 1.1248e-006
Heightened Def Con from 1.1248e-006 to 1.12505e-006
Heightened Def Con from 1.12527e-006 to 1.12639e-006
Heightened Def Con from 1.12714e-006 to 1.12914e-006

Date: Thu Sep 05 21:46:57 2019
Total elapsed time: 5.375 seconds.

tnom = 27
temp = 27
method = modified trap
totiter = 319345
traniter = 317962
tranpoints = 34563
accept = 10556
rejected = 26101
matrix size = 55
fillins = 196
solver = Normal
Matrix Compiler1: 18.27 KB object code size  5.9/3.2/[1.7]
Matrix Compiler2: 7.76 KB object code size  4.0/3.2/[1.1]

