Circuit: * C:\Users\ohvic\Documents\ITBA\TCTP2\Ex2\LM833\LM833.asc

Early termination of direct N-R iteration.
Direct Newton iteration failed to find .op point.  (Use ".option noopiter" to skip.)
Starting Gmin stepping
Gmin = 10
vernier = 0.5
vernier = 0.25
vernier = 0.125
Gmin = 5.841
vernier = 0.0625
vernier = 0.03125
vernier = 0.015625
vernier = 0.0078125
Gmin = 5.97672
vernier = 0.00390625
vernier = 0.00195313
vernier = 0.000976563
vernier = 0.000488281
Gmin = 5.98328
Gmin = 0
Gmin stepping succeeded in finding the operating point.


Date: Fri Aug 30 16:22:52 2019
Total elapsed time: 0.194 seconds.

tnom = 27
temp = 27
method = trap
totiter = 1373
traniter = 0
tranpoints = 0
accept = 0
rejected = 0
matrix size = 30
fillins = 60
solver = Normal
Matrix Compiler1:     223 opcodes
Matrix Compiler2: off  [0.7]/1.0/1.2

