Circuit: * C:\Users\ohvic\Documents\ITBA\TCTP2\Ex2\LM833\LM833.asc

ERROR: Node U2:I0:I21:1:102 is floating and connected to current source G:U2:I0:I21:1:RA
ERROR: Node U2:I0:I19:1:102 is floating and connected to current source G:U2:I0:I19:1:RA
ERROR: Node U2:I0:I19:1:302 is floating and connected to current source G:U2:I0:I19:1:RC

u2:vpd: Missing value, assumed 0V @ DC
u2:i0:vprobe2: Missing value, assumed 0V @ DC
u2:i0:vprobe1: Missing value, assumed 0V @ DC
Direct Newton iteration for .op point succeeded.

Date: Mon Aug 26 02:10:58 2019
Total elapsed time: 0.213 seconds.

tnom = 27
temp = 27
method = trap
totiter = 7
traniter = 0
tranpoints = 0
accept = 0
rejected = 0
matrix size = 180
fillins = 93
solver = Normal
Matrix Compiler1:     512 opcodes
Matrix Compiler2: 13.69 KB object code size
