Circuit: * C:\Users\ohvic\Documents\ITBA\TCTP2\Ex2\LM833\LM833.asc

ERROR: Node U2:I0:I21:1:102 is floating and connected to current source G:U2:I0:I21:1:RA
ERROR: Node U2:I0:I19:1:102 is floating and connected to current source G:U2:I0:I19:1:RA
ERROR: Node U2:I0:I19:1:302 is floating and connected to current source G:U2:I0:I19:1:RC

u2:vpd: Missing value, assumed 0V @ DC
u2:i0:vprobe2: Missing value, assumed 0V @ DC
u2:i0:vprobe1: Missing value, assumed 0V @ DC
Direct Newton iteration failed to find .op point.  (Use ".option noopiter" to skip.)
Starting Gmin stepping
Gmin = 10
Gmin = 1.07374
Gmin = 0.115292
Gmin = 0.0123794
Gmin = 0.00132923
vernier = 0.5
vernier = 0.25
vernier = 0.125
vernier = 0.0625
Gmin = 0.00100083
vernier = 0.03125
vernier = 0.015625
vernier = 0.0078125
vernier = 0.00390625
vernier = 0.00195313
Gmin = 0.00100083
vernier = 0.000976563
vernier = 0.000488281
Gmin = 0
Gmin stepping failed

Starting source stepping with srcstepmethod=0
Source Step = 3.0303%
Source Step = 33.3333%
Source Step = 56.0606%
Source Step = 57.7178%
Source Step = 57.777%
Source Step = 57.8066%
Source Step = 57.8362%
Source Step = 57.8658%
Starting source stepping with srcstepmethod=1
Source Step = 3.0303%
Source Step = 12.7367%
Source Step = 13.2102%
vernier = 0.00390625
Source Step = 13.2161%
Source Step = 13.2457%
Source stepping failed

Pseudo Transient failed in finding the operating point at 10.2777 µs.
Fatal Error: Failed to find DC operating point for AC analysis.
