Circuit: * C:\Users\ohvic\Documents\ITBA\TCTP2\Ex2\NE5534\NE5534.asc

Direct Newton iteration for .op point succeeded.

Date: Thu Sep 05 21:51:13 2019
Total elapsed time: 0.133 seconds.

tnom = 27
temp = 27
method = trap
totiter = 10
traniter = 0
tranpoints = 0
accept = 0
rejected = 0
matrix size = 32
fillins = 44
solver = Normal
Matrix Compiler1:     213 opcodes
Matrix Compiler2: 3.35 KB object code size
