Circuit: * C:\Users\ohvic\Documents\ITBA\TCTP2\Ex2\NE5534\NE5534.asc

Direct Newton iteration for .op point succeeded.

Date: Mon Aug 26 16:33:28 2019
Total elapsed time: 0.155 seconds.

tnom = 27
temp = 27
method = trap
totiter = 10
traniter = 0
tranpoints = 0
accept = 0
rejected = 0
matrix size = 32
fillins = 45
solver = Normal
Matrix Compiler1:     216 opcodes
Matrix Compiler2: 3.32 KB object code size
